 
data_mf118b
 
_audit_creation_method            'SHELXL-2016/6'
_shelx_SHELXL_version_number      '2016/6'
_chemical_name_systematic         ?
_chemical_name_common             ?
_chemical_melting_point           ?
_chemical_formula_moiety          
 'C22 H14 Fe2 N10 S2 2-, 2(C8 H20 N +)'
_chemical_formula_sum
 'C38 H54 Fe2 N12 S2' 
_chemical_formula_weight          854.75

loop_
 _atom_type_symbol
 _atom_type_description
 _atom_type_scat_dispersion_real
 _atom_type_scat_dispersion_imag
 _atom_type_scat_source
 'C'  'C'   0.0033   0.0016
 'International Tables Vol C Tables 4.2.6.8 and 6.1.1.4'
 'H'  'H'   0.0000   0.0000
 'International Tables Vol C Tables 4.2.6.8 and 6.1.1.4'
 'N'  'N'   0.0061   0.0033
 'International Tables Vol C Tables 4.2.6.8 and 6.1.1.4'
 'S'  'S'   0.1246   0.1234
 'International Tables Vol C Tables 4.2.6.8 and 6.1.1.4'
 'Fe'  'Fe'   0.3463   0.8444
 'International Tables Vol C Tables 4.2.6.8 and 6.1.1.4'
 
_space_group_crystal_system       monoclinic
_space_group_IT_number            14
_space_group_name_H-M_alt         'P 21/c'
_space_group_name_Hall            '-P 2ybc'
 
_shelx_space_group_comment
;
The symmetry employed for this shelxl refinement is uniquely defined
by the following loop, which should always be used as a source of
symmetry information in preference to the above space-group names.
They are only intended as comments.
;
 
loop_
 _space_group_symop_operation_xyz
 'x, y, z'
 '-x, y+1/2, -z+1/2'
 '-x, -y, -z'
 'x, -y-1/2, z-1/2'
 
_cell_length_a                    11.2144(4)
_cell_length_b                    14.4686(4)
_cell_length_c                    13.7454(5)
_cell_angle_alpha                 90
_cell_angle_beta                  113.658(3)
_cell_angle_gamma                 90
_cell_volume                      2042.84(13)
_cell_formula_units_Z             2
_cell_measurement_temperature     133(2)
_cell_measurement_reflns_used     26072
_cell_measurement_theta_min       1.983
_cell_measurement_theta_max       26.942
 
_exptl_crystal_description        block
_exptl_crystal_colour             black
_exptl_crystal_density_meas       ?
_exptl_crystal_density_method     ?
_exptl_crystal_density_diffrn     1.390          
_exptl_crystal_F_000              900
_exptl_transmission_factor_min    ?
_exptl_transmission_factor_max    ?
_exptl_crystal_size_max           0.500
_exptl_crystal_size_mid           0.500
_exptl_crystal_size_min           0.360
_exptl_absorpt_coefficient_mu     0.857
_shelx_estimated_absorpt_T_min    0.674
_shelx_estimated_absorpt_T_max    0.748
_exptl_absorpt_correction_type    numerical
_exptl_absorpt_correction_T_min   0.6373
_exptl_absorpt_correction_T_max   0.7269
_exptl_absorpt_process_details    'X-RED (Stoe & Cie, 2015)'
_exptl_absorpt_special_details    ?
_diffrn_ambient_temperature       133(2)
_diffrn_radiation_wavelength      0.71073
_diffrn_radiation_type            MoK\a
_diffrn_source                    'fine-focus sealed tube'
_diffrn_measurement_device_type   'Stoe IPDS II'
_diffrn_measurement_method        \w
_diffrn_detector_area_resol_mean  ?
_diffrn_reflns_number             26072
_diffrn_reflns_av_unetI/netI      0.0155
_diffrn_reflns_av_R_equivalents   0.0317
_diffrn_reflns_limit_h_min        -14
_diffrn_reflns_limit_h_max        14
_diffrn_reflns_limit_k_min        -18
_diffrn_reflns_limit_k_max        18
_diffrn_reflns_limit_l_min        -17
_diffrn_reflns_limit_l_max        17
_diffrn_reflns_theta_min          1.983
_diffrn_reflns_theta_max          26.942
_diffrn_reflns_theta_full         25.242
_diffrn_measured_fraction_theta_max   0.999
_diffrn_measured_fraction_theta_full  1.000
_diffrn_reflns_Laue_measured_fraction_max    0.999
_diffrn_reflns_Laue_measured_fraction_full   1.000
_diffrn_reflns_point_group_measured_fraction_max   0.999
_diffrn_reflns_point_group_measured_fraction_full  1.000
_reflns_number_total              4445
_reflns_number_gt                 4191
_reflns_threshold_expression      'I > 2\s(I)'
_reflns_Friedel_coverage          0.000
_reflns_Friedel_fraction_max      .
_reflns_Friedel_fraction_full     .
 
_reflns_special_details
;
 Reflections were merged by SHELXL according to the crystal
 class for the calculation of statistics and refinement.
 
 _reflns_Friedel_fraction is defined as the number of unique
 Friedel pairs measured divided by the number that would be
 possible theoretically, ignoring centric projections and
 systematic absences.
;
 
_computing_data_collection        'X-AREA (Stoe & Cie, 2015)'
_computing_cell_refinement        'X-AREA (Stoe & Cie, 2015)'
_computing_data_reduction         'X-AREA (Stoe & Cie, 2015)'
_computing_structure_solution     'SHELXT-2014 (Sheldrick, 2014)'
_computing_structure_refinement 'SHELXL-2016/6 (Sheldrick, 2016)'
_computing_molecular_graphics     'DIAMOND (Brandenburg, 2012)'
_computing_publication_material   'SHELXL-2016 (Sheldrick, 2016)'
_refine_special_details           ?
_refine_ls_structure_factor_coef  Fsqd
_refine_ls_matrix_type            full
_refine_ls_weighting_scheme       calc
_refine_ls_weighting_details
'w=1/[\s^2^(Fo^2^)+(0.0310P)^2^+0.9621P] where P=(Fo^2^+2Fc^2^)/3'
_atom_sites_solution_primary      ?
_atom_sites_solution_secondary    ?
_atom_sites_solution_hydrogens    geom
_refine_ls_hydrogen_treatment     constr
_refine_ls_extinction_method      none
_refine_ls_extinction_coef        .
_refine_ls_number_reflns          4445
_refine_ls_number_parameters      248
_refine_ls_number_restraints      0
_refine_ls_R_factor_all           0.0247
_refine_ls_R_factor_gt            0.0227
_refine_ls_wR_factor_ref          0.0608
_refine_ls_wR_factor_gt           0.0599
_refine_ls_goodness_of_fit_ref    1.037
_refine_ls_restrained_S_all       1.037
_refine_ls_shift/su_max           0.001
_refine_ls_shift/su_mean          0.000
 
loop_
 _atom_site_label
 _atom_site_type_symbol
 _atom_site_fract_x
 _atom_site_fract_y
 _atom_site_fract_z
 _atom_site_U_iso_or_equiv
 _atom_site_adp_type
 _atom_site_occupancy
 _atom_site_site_symmetry_order  
 _atom_site_calc_flag
 _atom_site_refinement_flags_posn
 _atom_site_refinement_flags_adp
 _atom_site_refinement_flags_occupancy
 _atom_site_disorder_assembly
 _atom_site_disorder_group
Fe1 Fe 0.45958(2) 0.48117(2) 0.39188(2) 0.01226(6) Uani 1 1 d . . . . .
S1 S 0.55101(3) 0.38627(2) 0.52808(2) 0.01467(7) Uani 1 1 d . . . . .
N1 N 0.61529(10) 0.51252(7) 0.34783(8) 0.0157(2) Uani 1 1 d . . . . .
N2 N 0.72968(11) 0.48103(8) 0.24756(9) 0.0236(2) Uani 1 1 d . . . . .
N3 N 0.41916(10) 0.41111(7) 0.24158(8) 0.0150(2) Uani 1 1 d . . . . .
N4 N 0.25852(10) 0.44894(7) 0.32489(8) 0.0160(2) Uani 1 1 d . . . . .
N5 N 0.08677(10) 0.37282(8) 0.20156(9) 0.0215(2) Uani 1 1 d . . . . .
C1 C 0.72680(12) 0.56349(9) 0.38589(10) 0.0194(2) Uani 1 1 d . . . . .
H1 H 0.752526 0.605053 0.444244 0.023 Uiso 1 1 calc R U . . .
C2 C 0.79577(13) 0.54417(10) 0.32482(11) 0.0242(3) Uani 1 1 d . . . . .
H2 H 0.877322 0.570775 0.334838 0.029 Uiso 1 1 calc R U . . .
C3 C 0.62280(12) 0.46509(9) 0.26505(10) 0.0167(2) Uani 1 1 d . . . . .
C4 C 0.51297(12) 0.40667(8) 0.20401(9) 0.0167(2) Uani 1 1 d . . . . .
C5 C 0.49578(13) 0.35353(10) 0.11503(10) 0.0235(3) Uani 1 1 d . . . . .
H5 H 0.562375 0.349582 0.089060 0.028 Uiso 1 1 calc R U . . .
C6 C 0.37901(14) 0.30634(10) 0.06498(11) 0.0258(3) Uani 1 1 d . . . . .
H6 H 0.366047 0.268681 0.004961 0.031 Uiso 1 1 calc R U . . .
C7 C 0.28103(13) 0.31394(9) 0.10225(10) 0.0217(3) Uani 1 1 d . . . . .
H7 H 0.200361 0.282748 0.067769 0.026 Uiso 1 1 calc R U . . .
C8 C 0.30439(12) 0.36854(8) 0.19154(10) 0.0167(2) Uani 1 1 d . . . . .
C9 C 0.21340(12) 0.39265(8) 0.23836(10) 0.0166(2) Uani 1 1 d . . . . .
C10 C 0.15052(12) 0.46584(9) 0.34493(10) 0.0191(2) Uani 1 1 d . . . . .
H10 H 0.147564 0.503005 0.400896 0.023 Uiso 1 1 calc R U . . .
C11 C 0.04670(12) 0.41970(9) 0.27000(11) 0.0217(3) Uani 1 1 d . . . . .
H11 H -0.039748 0.420249 0.266248 0.026 Uiso 1 1 calc R U . . .
N6 N 0.78456(10) 0.31801(7) 0.90339(8) 0.0179(2) Uani 1 1 d . . . . .
C12 C 0.79644(13) 0.35705(10) 1.00940(10) 0.0221(3) Uani 1 1 d . . . . .
H12A H 0.732209 0.325599 1.030649 0.027 Uiso 1 1 calc R U . . .
H12B H 0.884231 0.342289 1.063476 0.027 Uiso 1 1 calc R U . . .
C13 C 0.77545(16) 0.46040(11) 1.01016(11) 0.0304(3) Uani 1 1 d . . . . .
H13A H 0.776378 0.478787 1.079085 0.046 Uiso 1 1 calc R U . . .
H13B H 0.691237 0.476575 0.953734 0.046 Uiso 1 1 calc R U . . .
H13C H 0.845158 0.492727 0.998171 0.046 Uiso 1 1 calc R U . . .
C14 C 0.89087(14) 0.35959(10) 0.87500(11) 0.0249(3) Uani 1 1 d . . . . .
H14A H 0.874852 0.426805 0.863572 0.030 Uiso 1 1 calc R U . . .
H14B H 0.975462 0.351523 0.936146 0.030 Uiso 1 1 calc R U . . .
C15 C 0.90119(19) 0.31839(11) 0.77705(14) 0.0389(4) Uani 1 1 d . . . . .
H15A H 0.972217 0.348554 0.764843 0.058 Uiso 1 1 calc R U . . .
H15B H 0.819127 0.328033 0.715264 0.058 Uiso 1 1 calc R U . . .
H15C H 0.918874 0.252003 0.787844 0.058 Uiso 1 1 calc R U . . .
C16 C 0.79758(14) 0.21346(9) 0.91305(11) 0.0239(3) Uani 1 1 d . . . . .
H16A H 0.731760 0.189743 0.937823 0.029 Uiso 1 1 calc R U . . .
H16B H 0.776951 0.187392 0.841515 0.029 Uiso 1 1 calc R U . . .
C17 C 0.93012(15) 0.17812(10) 0.98738(12) 0.0289(3) Uani 1 1 d . . . . .
H17A H 0.927185 0.110688 0.992787 0.043 Uiso 1 1 calc R U . . .
H17B H 0.953859 0.205618 1.057849 0.043 Uiso 1 1 calc R U . . .
H17C H 0.995047 0.195192 0.959586 0.043 Uiso 1 1 calc R U . . .
C18 C 0.65268(13) 0.34130(10) 0.81603(10) 0.0232(3) Uani 1 1 d . . . . .
H18A H 0.651189 0.408117 0.800058 0.028 Uiso 1 1 calc R U . . .
H18B H 0.643778 0.307196 0.751031 0.028 Uiso 1 1 calc R U . . .
C19 C 0.53581(14) 0.31935(11) 0.84083(12) 0.0302(3) Uani 1 1 d . . . . .
H19A H 0.455866 0.328363 0.776920 0.045 Uiso 1 1 calc R U . . .
H19B H 0.535089 0.360479 0.897235 0.045 Uiso 1 1 calc R U . . .
H19C H 0.540845 0.254988 0.864383 0.045 Uiso 1 1 calc R U . . .
 
loop_
 _atom_site_aniso_label
 _atom_site_aniso_U_11
 _atom_site_aniso_U_22
 _atom_site_aniso_U_33
 _atom_site_aniso_U_23
 _atom_site_aniso_U_13
 _atom_site_aniso_U_12
Fe1 0.01169(9) 0.01393(9) 0.01100(9) -0.00058(6) 0.00438(7) 0.00015(6)
S1 0.01674(14) 0.01299(13) 0.01415(14) 0.00053(10) 0.00606(11) 0.00161(10)
N1 0.0150(5) 0.0178(5) 0.0151(5) 0.0005(4) 0.0068(4) 0.0002(4)
N2 0.0168(5) 0.0337(6) 0.0227(6) -0.0023(5) 0.0103(5) -0.0008(4)
N3 0.0141(5) 0.0159(5) 0.0145(5) -0.0011(4) 0.0053(4) 0.0013(4)
N4 0.0130(5) 0.0189(5) 0.0156(5) -0.0012(4) 0.0051(4) 0.0003(4)
N5 0.0146(5) 0.0234(6) 0.0245(5) -0.0045(4) 0.0057(4) -0.0021(4)
C1 0.0172(6) 0.0215(6) 0.0182(6) 0.0009(5) 0.0057(5) -0.0022(5)
C2 0.0166(6) 0.0322(7) 0.0244(7) -0.0008(5) 0.0089(5) -0.0049(5)
C3 0.0155(6) 0.0201(6) 0.0158(5) 0.0008(4) 0.0078(5) 0.0028(4)
C4 0.0153(6) 0.0192(6) 0.0155(5) 0.0007(4) 0.0062(5) 0.0039(4)
C5 0.0217(6) 0.0285(7) 0.0222(6) -0.0057(5) 0.0108(5) 0.0049(5)
C6 0.0256(7) 0.0272(7) 0.0228(6) -0.0103(5) 0.0078(5) 0.0041(5)
C7 0.0180(6) 0.0205(6) 0.0227(6) -0.0070(5) 0.0041(5) 0.0004(5)
C8 0.0149(6) 0.0153(5) 0.0177(6) -0.0009(4) 0.0043(5) 0.0017(4)
C9 0.0146(6) 0.0161(5) 0.0172(6) -0.0011(4) 0.0045(5) 0.0000(4)
C10 0.0170(6) 0.0230(6) 0.0186(6) -0.0004(5) 0.0083(5) 0.0019(5)
C11 0.0142(6) 0.0265(6) 0.0249(6) -0.0010(5) 0.0084(5) -0.0002(5)
N6 0.0195(5) 0.0178(5) 0.0151(5) 0.0021(4) 0.0056(4) -0.0021(4)
C12 0.0212(6) 0.0300(7) 0.0126(5) 0.0009(5) 0.0041(5) 0.0023(5)
C13 0.0348(8) 0.0316(8) 0.0206(7) -0.0041(6) 0.0068(6) 0.0060(6)
C14 0.0269(7) 0.0207(6) 0.0319(7) 0.0047(5) 0.0168(6) -0.0017(5)
C15 0.0580(11) 0.0309(8) 0.0437(9) 0.0085(7) 0.0371(9) 0.0087(7)
C16 0.0264(7) 0.0172(6) 0.0262(6) 0.0035(5) 0.0087(6) -0.0030(5)
C17 0.0310(8) 0.0227(7) 0.0305(7) 0.0059(6) 0.0099(6) 0.0043(6)
C18 0.0242(7) 0.0237(6) 0.0143(6) 0.0040(5) 0.0000(5) -0.0015(5)
C19 0.0196(7) 0.0326(8) 0.0289(7) 0.0100(6) -0.0002(6) -0.0020(5)
 
_geom_special_details
;
 All esds (except the esd in the dihedral angle between two l.s. planes)
 are estimated using the full covariance matrix.  The cell esds are taken
 into account individually in the estimation of esds in distances, angles
 and torsion angles; correlations between esds in cell parameters are only
 used when they are defined by crystal symmetry.  An approximate (isotropic)
 treatment of cell esds is used for estimating esds involving l.s. planes.
;
 
loop_
 _geom_bond_atom_site_label_1
 _geom_bond_atom_site_label_2
 _geom_bond_distance
 _geom_bond_site_symmetry_2
 _geom_bond_publ_flag
Fe1 N1 2.1142(10) . ?
Fe1 N4 2.1173(10) . ?
Fe1 N3 2.1793(10) . ?
Fe1 S1 2.2138(3) . ?
Fe1 S1 2.2379(3) 3_666 ?
Fe1 Fe1 2.7913(3) 3_666 ?
N1 C3 1.3600(16) . ?
N1 C1 1.3625(16) . ?
N2 C3 1.3338(16) . ?
N2 C2 1.3711(18) . ?
N3 C8 1.3412(16) . ?
N3 C4 1.3467(15) . ?
N4 C9 1.3605(16) . ?
N4 C10 1.3677(16) . ?
N5 C9 1.3336(16) . ?
N5 C11 1.3734(17) . ?
C1 C2 1.3792(18) . ?
C1 H1 0.9500 . ?
C2 H2 0.9500 . ?
C3 C4 1.4513(17) . ?
C4 C5 1.3909(17) . ?
C5 C6 1.390(2) . ?
C5 H5 0.9500 . ?
C6 C7 1.3906(19) . ?
C6 H6 0.9500 . ?
C7 C8 1.3932(17) . ?
C7 H7 0.9500 . ?
C8 C9 1.4505(17) . ?
C10 C11 1.3782(18) . ?
C10 H10 0.9500 . ?
C11 H11 0.9500 . ?
N6 C12 1.5180(16) . ?
N6 C14 1.5195(16) . ?
N6 C16 1.5204(16) . ?
N6 C18 1.5224(16) . ?
C12 C13 1.515(2) . ?
C12 H12A 0.9900 . ?
C12 H12B 0.9900 . ?
C13 H13A 0.9800 . ?
C13 H13B 0.9800 . ?
C13 H13C 0.9800 . ?
C14 C15 1.519(2) . ?
C14 H14A 0.9900 . ?
C14 H14B 0.9900 . ?
C15 H15A 0.9800 . ?
C15 H15B 0.9800 . ?
C15 H15C 0.9800 . ?
C16 C17 1.515(2) . ?
C16 H16A 0.9900 . ?
C16 H16B 0.9900 . ?
C17 H17A 0.9800 . ?
C17 H17B 0.9800 . ?
C17 H17C 0.9800 . ?
C18 C19 1.514(2) . ?
C18 H18A 0.9900 . ?
C18 H18B 0.9900 . ?
C19 H19A 0.9800 . ?
C19 H19B 0.9800 . ?
C19 H19C 0.9800 . ?
 
loop_
 _geom_angle_atom_site_label_1
 _geom_angle_atom_site_label_2
 _geom_angle_atom_site_label_3
 _geom_angle
 _geom_angle_site_symmetry_1
 _geom_angle_site_symmetry_3
 _geom_angle_publ_flag
N1 Fe1 N4 141.30(4) . . ?
N1 Fe1 N3 73.13(4) . . ?
N4 Fe1 N3 72.85(4) . . ?
N1 Fe1 S1 102.70(3) . . ?
N4 Fe1 S1 106.39(3) . . ?
N3 Fe1 S1 111.27(3) . . ?
N1 Fe1 S1 99.78(3) . 3_666 ?
N4 Fe1 S1 98.35(3) . 3_666 ?
N3 Fe1 S1 146.39(3) . 3_666 ?
S1 Fe1 S1 102.343(12) . 3_666 ?
N1 Fe1 Fe1 108.09(3) . 3_666 ?
N4 Fe1 Fe1 109.89(3) . 3_666 ?
N3 Fe1 Fe1 162.82(3) . 3_666 ?
S1 Fe1 Fe1 51.557(9) . 3_666 ?
S1 Fe1 Fe1 50.786(9) 3_666 3_666 ?
Fe1 S1 Fe1 77.657(11) . 3_666 ?
C3 N1 C1 103.82(10) . . ?
C3 N1 Fe1 117.83(8) . . ?
C1 N1 Fe1 137.94(9) . . ?
C3 N2 C2 102.78(11) . . ?
C8 N3 C4 121.20(10) . . ?
C8 N3 Fe1 119.44(8) . . ?
C4 N3 Fe1 119.24(8) . . ?
C9 N4 C10 103.55(10) . . ?
C9 N4 Fe1 118.01(8) . . ?
C10 N4 Fe1 138.39(9) . . ?
C9 N5 C11 103.01(10) . . ?
N1 C1 C2 108.00(11) . . ?
N1 C1 H1 126.0 . . ?
C2 C1 H1 126.0 . . ?
N2 C2 C1 110.22(11) . . ?
N2 C2 H2 124.9 . . ?
C1 C2 H2 124.9 . . ?
N2 C3 N1 115.18(11) . . ?
N2 C3 C4 127.74(11) . . ?
N1 C3 C4 117.03(11) . . ?
N3 C4 C5 120.64(12) . . ?
N3 C4 C3 111.27(10) . . ?
C5 C4 C3 128.05(11) . . ?
C6 C5 C4 118.52(12) . . ?
C6 C5 H5 120.7 . . ?
C4 C5 H5 120.7 . . ?
C5 C6 C7 120.38(12) . . ?
C5 C6 H6 119.8 . . ?
C7 C6 H6 119.8 . . ?
C6 C7 C8 118.18(12) . . ?
C6 C7 H7 120.9 . . ?
C8 C7 H7 120.9 . . ?
N3 C8 C7 120.98(11) . . ?
N3 C8 C9 111.30(10) . . ?
C7 C8 C9 127.60(12) . . ?
N5 C9 N4 115.23(11) . . ?
N5 C9 C8 127.70(11) . . ?
N4 C9 C8 116.79(11) . . ?
N4 C10 C11 108.28(11) . . ?
N4 C10 H10 125.9 . . ?
C11 C10 H10 125.9 . . ?
N5 C11 C10 109.92(11) . . ?
N5 C11 H11 125.0 . . ?
C10 C11 H11 125.0 . . ?
C12 N6 C14 108.88(10) . . ?
C12 N6 C16 108.54(10) . . ?
C14 N6 C16 111.02(10) . . ?
C12 N6 C18 110.98(10) . . ?
C14 N6 C18 108.89(10) . . ?
C16 N6 C18 108.54(10) . . ?
C13 C12 N6 114.84(11) . . ?
C13 C12 H12A 108.6 . . ?
N6 C12 H12A 108.6 . . ?
C13 C12 H12B 108.6 . . ?
N6 C12 H12B 108.6 . . ?
H12A C12 H12B 107.5 . . ?
C12 C13 H13A 109.5 . . ?
C12 C13 H13B 109.5 . . ?
H13A C13 H13B 109.5 . . ?
C12 C13 H13C 109.5 . . ?
H13A C13 H13C 109.5 . . ?
H13B C13 H13C 109.5 . . ?
C15 C14 N6 114.77(12) . . ?
C15 C14 H14A 108.6 . . ?
N6 C14 H14A 108.6 . . ?
C15 C14 H14B 108.6 . . ?
N6 C14 H14B 108.6 . . ?
H14A C14 H14B 107.6 . . ?
C14 C15 H15A 109.5 . . ?
C14 C15 H15B 109.5 . . ?
H15A C15 H15B 109.5 . . ?
C14 C15 H15C 109.5 . . ?
H15A C15 H15C 109.5 . . ?
H15B C15 H15C 109.5 . . ?
C17 C16 N6 115.37(11) . . ?
C17 C16 H16A 108.4 . . ?
N6 C16 H16A 108.4 . . ?
C17 C16 H16B 108.4 . . ?
N6 C16 H16B 108.4 . . ?
H16A C16 H16B 107.5 . . ?
C16 C17 H17A 109.5 . . ?
C16 C17 H17B 109.5 . . ?
H17A C17 H17B 109.5 . . ?
C16 C17 H17C 109.5 . . ?
H17A C17 H17C 109.5 . . ?
H17B C17 H17C 109.5 . . ?
C19 C18 N6 115.51(10) . . ?
C19 C18 H18A 108.4 . . ?
N6 C18 H18A 108.4 . . ?
C19 C18 H18B 108.4 . . ?
N6 C18 H18B 108.4 . . ?
H18A C18 H18B 107.5 . . ?
C18 C19 H19A 109.5 . . ?
C18 C19 H19B 109.5 . . ?
H19A C19 H19B 109.5 . . ?
C18 C19 H19C 109.5 . . ?
H19A C19 H19C 109.5 . . ?
H19B C19 H19C 109.5 . . ?
 
loop_
 _geom_torsion_atom_site_label_1
 _geom_torsion_atom_site_label_2
 _geom_torsion_atom_site_label_3
 _geom_torsion_atom_site_label_4
 _geom_torsion
 _geom_torsion_site_symmetry_1
 _geom_torsion_site_symmetry_2
 _geom_torsion_site_symmetry_3
 _geom_torsion_site_symmetry_4
 _geom_torsion_publ_flag
C3 N1 C1 C2 -0.21(14) . . . . ?
Fe1 N1 C1 C2 171.87(10) . . . . ?
C3 N2 C2 C1 0.25(15) . . . . ?
N1 C1 C2 N2 -0.02(16) . . . . ?
C2 N2 C3 N1 -0.40(15) . . . . ?
C2 N2 C3 C4 176.90(13) . . . . ?
C1 N1 C3 N2 0.39(15) . . . . ?
Fe1 N1 C3 N2 -173.61(9) . . . . ?
C1 N1 C3 C4 -177.21(11) . . . . ?
Fe1 N1 C3 C4 8.79(14) . . . . ?
C8 N3 C4 C5 -3.42(18) . . . . ?
Fe1 N3 C4 C5 172.52(9) . . . . ?
C8 N3 C4 C3 174.39(11) . . . . ?
Fe1 N3 C4 C3 -9.67(13) . . . . ?
N2 C3 C4 N3 -176.60(12) . . . . ?
N1 C3 C4 N3 0.66(16) . . . . ?
N2 C3 C4 C5 1.0(2) . . . . ?
N1 C3 C4 C5 178.27(12) . . . . ?
N3 C4 C5 C6 0.9(2) . . . . ?
C3 C4 C5 C6 -176.47(13) . . . . ?
C4 C5 C6 C7 1.3(2) . . . . ?
C5 C6 C7 C8 -1.1(2) . . . . ?
C4 N3 C8 C7 3.63(18) . . . . ?
Fe1 N3 C8 C7 -172.30(9) . . . . ?
C4 N3 C8 C9 -172.60(11) . . . . ?
Fe1 N3 C8 C9 11.47(13) . . . . ?
C6 C7 C8 N3 -1.35(19) . . . . ?
C6 C7 C8 C9 174.23(13) . . . . ?
C11 N5 C9 N4 -0.26(15) . . . . ?
C11 N5 C9 C8 -174.04(12) . . . . ?
C10 N4 C9 N5 0.33(14) . . . . ?
Fe1 N4 C9 N5 178.23(8) . . . . ?
C10 N4 C9 C8 174.82(11) . . . . ?
Fe1 N4 C9 C8 -7.29(14) . . . . ?
N3 C8 C9 N5 170.95(12) . . . . ?
C7 C8 C9 N5 -5.0(2) . . . . ?
N3 C8 C9 N4 -2.74(16) . . . . ?
C7 C8 C9 N4 -178.67(12) . . . . ?
C9 N4 C10 C11 -0.25(14) . . . . ?
Fe1 N4 C10 C11 -177.45(10) . . . . ?
C9 N5 C11 C10 0.09(15) . . . . ?
N4 C10 C11 N5 0.11(15) . . . . ?
C14 N6 C12 C13 63.37(14) . . . . ?
C16 N6 C12 C13 -175.67(12) . . . . ?
C18 N6 C12 C13 -56.47(15) . . . . ?
C12 N6 C14 C15 173.10(12) . . . . ?
C16 N6 C14 C15 53.67(15) . . . . ?
C18 N6 C14 C15 -65.77(15) . . . . ?
C12 N6 C16 C17 -66.44(14) . . . . ?
C14 N6 C16 C17 53.19(15) . . . . ?
C18 N6 C16 C17 172.84(11) . . . . ?
C12 N6 C18 C19 -50.00(15) . . . . ?
C14 N6 C18 C19 -169.83(12) . . . . ?
C16 N6 C18 C19 69.20(14) . . . . ?
 
_refine_diff_density_max    0.310
_refine_diff_density_min   -0.360
_refine_diff_density_rms    0.048

_shelx_res_file
;
TITL mf118b in P2(1)/c
    mf118b.res
    created by SHELXL-2016/6 at 16:07:28 on 12-Dec-2016
CELL  0.71073  11.2144  14.4686  13.7454   90.000  113.658   90.000
ZERR     2.00   0.0004   0.0004   0.0005    0.000    0.003    0.000
LATT   1
SYMM  - X, 1/2 + Y, 1/2 - Z
SFAC  C    H    N    S    FE
UNIT  76   108  24   4    4
FMAP   2
SIZE   0.500   0.500   0.360
TEMP  -140
PLAN  -5
LIST   4
BOND  $H
CONF
ACTA
L.S.   8
WGHT    0.031000    0.962100
FVAR       0.53372
FE1   5    0.459583    0.481172    0.391880    11.00000    0.01169    0.01393 =
         0.01100   -0.00058    0.00438    0.00015
S1    4    0.551011    0.386268    0.528078    11.00000    0.01674    0.01299 =
         0.01415    0.00053    0.00606    0.00161
N1    3    0.615290    0.512519    0.347830    11.00000    0.01496    0.01779 =
         0.01514    0.00051    0.00680    0.00019
N2    3    0.729682    0.481028    0.247558    11.00000    0.01677    0.03368 =
         0.02268   -0.00235    0.01033   -0.00083
N3    3    0.419160    0.411115    0.241577    11.00000    0.01413    0.01591 =
         0.01447   -0.00110    0.00530    0.00127
N4    3    0.258524    0.448938    0.324888    11.00000    0.01302    0.01887 =
         0.01563   -0.00117    0.00514    0.00030
N5    3    0.086766    0.372815    0.201556    11.00000    0.01458    0.02340 =
         0.02449   -0.00446    0.00575   -0.00214
C1    1    0.726799    0.563494    0.385886    11.00000    0.01722    0.02145 =
         0.01820    0.00086    0.00571   -0.00225
AFIX  43
H1    2    0.752526    0.605053    0.444244    11.00000   -1.20000
AFIX   0
C2    1    0.795768    0.544169    0.324817    11.00000    0.01665    0.03219 =
         0.02445   -0.00081    0.00893   -0.00489
AFIX  43
H2    2    0.877322    0.570775    0.334838    11.00000   -1.20000
AFIX   0
C3    1    0.622797    0.465092    0.265046    11.00000    0.01548    0.02013 =
         0.01582    0.00083    0.00775    0.00283
C4    1    0.512969    0.406666    0.204007    11.00000    0.01529    0.01917 =
         0.01551    0.00073    0.00619    0.00393
C5    1    0.495778    0.353529    0.115033    11.00000    0.02168    0.02853 =
         0.02215   -0.00565    0.01076    0.00493
AFIX  43
H5    2    0.562375    0.349582    0.089060    11.00000   -1.20000
AFIX   0
C6    1    0.379008    0.306343    0.064984    11.00000    0.02555    0.02718 =
         0.02281   -0.01030    0.00783    0.00410
AFIX  43
H6    2    0.366047    0.268681    0.004961    11.00000   -1.20000
AFIX   0
C7    1    0.281026    0.313937    0.102252    11.00000    0.01803    0.02047 =
         0.02273   -0.00697    0.00412    0.00041
AFIX  43
H7    2    0.200361    0.282748    0.067769    11.00000   -1.20000
AFIX   0
C8    1    0.304388    0.368536    0.191545    11.00000    0.01494    0.01528 =
         0.01766   -0.00086    0.00431    0.00174
C9    1    0.213401    0.392648    0.238358    11.00000    0.01461    0.01615 =
         0.01723   -0.00113    0.00452   -0.00002
C10   1    0.150519    0.465840    0.344930    11.00000    0.01698    0.02295 =
         0.01863   -0.00036    0.00833    0.00187
AFIX  43
H10   2    0.147564    0.503005    0.400896    11.00000   -1.20000
AFIX   0
C11   1    0.046702    0.419702    0.269999    11.00000    0.01421    0.02648 =
         0.02486   -0.00096    0.00838   -0.00018
AFIX  43
H11   2   -0.039748    0.420249    0.266248    11.00000   -1.20000
AFIX   0
N6    3    0.784563    0.318008    0.903386    11.00000    0.01949    0.01785 =
         0.01511    0.00210    0.00562   -0.00214
C12   1    0.796440    0.357048    1.009397    11.00000    0.02123    0.02998 =
         0.01256    0.00088    0.00406    0.00232
AFIX  23
H12A  2    0.732209    0.325599    1.030649    11.00000   -1.20000
H12B  2    0.884231    0.342289    1.063476    11.00000   -1.20000
AFIX   0
C13   1    0.775451    0.460403    1.010164    11.00000    0.03484    0.03163 =
         0.02055   -0.00415    0.00683    0.00596
AFIX 137
H13A  2    0.776378    0.478787    1.079085    11.00000   -1.50000
H13B  2    0.691237    0.476575    0.953734    11.00000   -1.50000
H13C  2    0.845158    0.492727    0.998171    11.00000   -1.50000
AFIX   0
C14   1    0.890873    0.359589    0.874995    11.00000    0.02691    0.02069 =
         0.03187    0.00472    0.01683   -0.00166
AFIX  23
H14A  2    0.874852    0.426805    0.863572    11.00000   -1.20000
H14B  2    0.975462    0.351523    0.936146    11.00000   -1.20000
AFIX   0
C15   1    0.901187    0.318392    0.777053    11.00000    0.05795    0.03090 =
         0.04370    0.00846    0.03712    0.00866
AFIX 137
H15A  2    0.972217    0.348554    0.764843    11.00000   -1.50000
H15B  2    0.819127    0.328033    0.715264    11.00000   -1.50000
H15C  2    0.918874    0.252003    0.787844    11.00000   -1.50000
AFIX   0
C16   1    0.797578    0.213456    0.913054    11.00000    0.02639    0.01722 =
         0.02621    0.00351    0.00872   -0.00303
AFIX  23
H16A  2    0.731760    0.189743    0.937823    11.00000   -1.20000
H16B  2    0.776951    0.187392    0.841515    11.00000   -1.20000
AFIX   0
C17   1    0.930121    0.178118    0.987383    11.00000    0.03101    0.02270 =
         0.03054    0.00593    0.00986    0.00429
AFIX 137
H17A  2    0.927185    0.110688    0.992787    11.00000   -1.50000
H17B  2    0.953859    0.205618    1.057849    11.00000   -1.50000
H17C  2    0.995047    0.195192    0.959586    11.00000   -1.50000
AFIX   0
C18   1    0.652676    0.341301    0.816028    11.00000    0.02420    0.02371 =
         0.01433    0.00400   -0.00003   -0.00147
AFIX  23
H18A  2    0.651189    0.408117    0.800058    11.00000   -1.20000
H18B  2    0.643778    0.307196    0.751031    11.00000   -1.20000
AFIX   0
C19   1    0.535809    0.319346    0.840829    11.00000    0.01964    0.03256 =
         0.02894    0.00996   -0.00021   -0.00196
AFIX 137
H19A  2    0.455866    0.328363    0.776920    11.00000   -1.50000
H19B  2    0.535089    0.360479    0.897235    11.00000   -1.50000
H19C  2    0.540845    0.254988    0.864383    11.00000   -1.50000
AFIX   0
HKLF    4




REM  mf118b in P2(1)/c
REM R1 =  0.0227 for    4191 Fo > 4sig(Fo)  and  0.0247 for all    4445 data
REM    248 parameters refined using      0 restraints

END

WGHT      0.0310      0.9620

REM Highest difference peak  0.310,  deepest hole -0.360,  1-sigma level  0.048
Q1    1   0.2615  0.3737  0.2164  11.00000  0.05    0.31
Q2    1   0.5786  0.4302  0.2382  11.00000  0.05    0.26
Q3    1   0.1026  0.4324  0.3187  11.00000  0.05    0.25
Q4    1   0.5053  0.3807  0.1585  11.00000  0.05    0.24
Q5    1   0.4652  0.4081  0.2218  11.00000  0.05    0.24
;
_shelx_res_checksum    7585

_shelx_hkl_file
;
   1   0   0 6502.94   37.19   0
  -1   0   0 6398.40   37.11   0
   2   0   0  284.55    5.87   0
  -2   0   0  281.54    5.87   0
  -2   0   0  282.44   10.59   0
   3   0   0 5017.72   18.84   0
  -3   0   0 5015.82   18.89   0
   4   0   0 2652.24   12.30   0
  -4   0   0 2564.44   11.92   0
  -4   0   0 2694.79   22.98   0
   5   0   0  148.30    3.17   0
  -5   0   0  131.58    5.75   0
  -5   0   0  120.47    5.57   0
  -5   0   0  124.03    2.99   0
  -6   0   0  830.87   12.68   0
  -6   0   0  888.53    6.48   0
  -6   0   0  896.67   13.50   0
   6   0   0  891.63    6.44   0
  -7   0   0   95.06    2.55   0
  -7   0   0   83.26    5.70   0
  -7   0   0   87.07    5.98   0
  -8   0   0  251.05    3.90   0
  -9   0   0  338.21    4.29   0
 -10   0   0  254.13    3.50   0
 -11   0   0  876.42    6.00   0
 -12   0   0 1159.82    6.80   0
 -13   0   0  193.84    3.59   0
  -1  -1   0  402.29    9.45   0
   1  -1   0  412.62    8.06   0
   1  -1   0  392.15   10.99   0
  -1   1   0  398.09    7.97   0
   1   1   0  395.48    9.35   0
  -1   1   0  405.15   11.48   0
  -2   1   0  775.85   15.55   0
   2  -1   0  791.04    8.51   0
  -2  -1   0  781.64   11.83   0
  -2   1   0  785.97    8.54   0
   2  -1   0  795.81   15.61   0
  -2  -1   0  814.59   10.53   0
  -3  -1   0  483.53    8.58   0
  -3  -1   0  482.00    8.73   0
  -3  -1   0  490.59    6.56   0
  -3   1   0  458.23   11.52   0
   3  -1   0  496.48    5.84   0
   3  -1   0  509.39   11.91   0
  -3   1   0  489.15    5.87   0
  -4  -1   0  645.41    6.70   0
  -4   1   0  630.63    6.22   0
  -4   1   0  579.22   12.21   0
  -4  -1   0  621.23    9.02   0
   4  -1   0  645.98    6.21   0
   4  -1   0  624.64   12.47   0
  -4  -1   0  613.00    9.24   0
  -5  -1   0  105.09    2.86   0
   5  -1   0  101.31    2.72   0
  -5  -1   0   99.39    4.23   0
  -5   1   0  100.70    6.10   0
  -5   1   0  106.61    2.79   0
  -5  -1   0  107.07    4.35   0
  -6  -1   0    4.19    2.57   0
  -6  -1   0    4.43    2.55   0
  -6   1   0    4.06    4.52   0
  -6  -1   0    3.63    2.58   0
  -6   1   0    5.22    2.63   0
   6  -1   0    3.67    1.77   0
  -6   1   0    4.30    4.51   0
  -7  -1   0  170.22    3.56   0
  -7   1   0  167.83    3.53   0
  -7  -1   0  162.84    5.45   0
   7  -1   0  164.71    2.91   0
  -7  -1   0  179.23    5.89   0
  -8  -1   0  617.94    4.99   0
  -8  -1   0  643.51   10.63   0
  -8  -1   0  611.06   10.41   0
  -8   1   0  651.93    5.31   0
  -9  -1   0    8.86    2.13   0
  -9   1   0    9.19    2.85   0
 -10   1   0   28.89    3.13   0
 -10  -1   0   35.36    3.06   0
 -11   1   0   -0.09    2.22   0
 -11  -1   0    2.20    3.05   0
 -12   1   0   19.80    3.46   0
 -12  -1   0   22.65    3.34   0
 -13  -1   0   14.10    2.52   0
 -13   1   0   16.58    2.53   0
   0  -2   0 6317.59   34.50   0
   0  -2   0 6146.75   27.89   0
   0   2   0 6182.96   34.30   0
   0   2   0 6087.91   27.87   0
  -1   2   0 3766.28   23.02   0
   1  -2   0 3715.55   20.03   0
  -1  -2   0 3433.78   29.97   0
  -1  -2   0 3760.66   20.78   0
  -1   2   0 3651.46   19.83   0
   1   2   0 3847.64   21.07   0
   1  -2   0 3667.81   22.58   0
   2  -2   0  188.62    5.99   0
   2   2   0  188.14    5.25   0
  -2   2   0  191.26    6.11   0
  -2  -2   0  190.43    5.22   0
   2  -2   0  194.67    4.61   0
  -2   2   0  190.71    4.65   0
  -3  -2   0  786.11    9.01   0
   3  -2   0  747.04   11.01   0
   3  -2   0  827.73    7.17   0
  -3   2   0  797.47   11.39   0
  -3  -2   0  808.79    8.67   0
  -3   2   0  792.65    6.84   0
  -4  -2   0  621.90    6.88   0
  -4   2   0  590.50   10.22   0
   4  -2   0  597.17    5.48   0
   4  -2   0  610.24   10.42   0
  -4   2   0  589.66    5.50   0
  -4  -2   0  579.41    7.55   0
  -5  -2   0    1.81    2.37   0
  -5  -2   0    0.73    2.41   0
  -5   2   0    3.01    2.45   0
  -5   2   0    0.64    3.59   0
   5  -2   0    1.03    1.74   0
   5  -2   0    1.16    3.06   0
  -5  -2   0    6.48    1.94   0
  -6   2   0  106.49    3.16   0
  -6  -2   0   96.41    4.16   0
  -6  -2   0   96.01    2.73   0
  -6   2   0   95.07    6.29   0
   6  -2   0  100.94    3.20   0
   6  -2   0   97.43    6.39   0
  -6  -2   0   97.29    3.77   0
  -7  -2   0  367.02    6.13   0
  -7  -2   0  386.07    6.56   0
  -7   2   0  364.20    3.88   0
  -7  -2   0  372.62    4.19   0
   7  -2   0  388.80    4.32   0
  -8  -2   0    2.44    3.30   0
   8  -2   0    8.14    2.66   0
  -8   2   0    4.62    2.65   0
  -8  -2   0    2.23    2.68   0
  -8  -2   0    1.22    2.66   0
  -9   2   0   14.88    2.77   0
  -9  -2   0   17.83    4.26   0
  -9  -2   0   13.63    2.91   0
  -9  -2   0   13.97    3.68   0
 -10  -2   0  594.97    5.31   0
 -10  -2   0  534.19   13.19   0
 -10  -2   0  579.64   13.59   0
 -10   2   0  591.58    5.11   0
 -11   2   0  278.50    4.17   0
 -11  -2   0  267.53    4.27   0
 -12   2   0  215.39    4.12   0
 -12  -2   0  222.69    4.29   0
 -13  -2   0  163.85    4.24   0
 -13   2   0  145.62    3.23   0
  -1   3   0 1542.18   11.89   0
   1   3   0 1538.73   11.18   0
   1   3   0 1491.89   16.61   0
  -1   3   0 1563.41   11.81   0
  -1  -3   0 1552.14   11.14   0
   1  -3   0 1553.54   11.53   0
  -1  -3   0 1648.01   17.14   0
   1  -3   0 1571.73   11.90   0
  -2  -3   0  668.31    7.23   0
   2  -3   0  670.79    8.16   0
  -2   3   0  689.76    7.09   0
   2   3   0  652.72    7.14   0
   2  -3   0  682.57    7.03   0
  -2   3   0  669.24    8.19   0
   3  -3   0   99.63    3.97   0
   3  -3   0  107.69    2.89   0
  -3  -3   0  107.48    3.70   0
  -3   3   0  104.67    4.10   0
  -3   3   0  102.45    2.88   0
   3   3   0   99.48    3.16   0
  -4   3   0    4.61    2.51   0
  -4  -3   0    4.39    2.52   0
   4  -3   0    3.25    2.50   0
  -4  -3   0    4.30    2.45   0
   4  -3   0    5.87    1.74   0
  -4   3   0    3.83    2.48   0
   5  -3   0  392.24    7.56   0
  -5   3   0  379.54    7.40   0
  -5  -3   0  363.20    5.16   0
  -5  -3   0  390.20    5.31   0
   5  -3   0  376.19    4.07   0
  -5   3   0  362.11    4.03   0
   6  -3   0   19.93    3.83   0
   6  -3   0   22.02    2.60   0
  -6  -3   0   19.79    2.05   0
  -6  -3   0   19.01    2.68   0
  -6  -3   0   20.13    2.62   0
  -6   3   0   19.38    3.43   0
  -6   3   0   23.00    2.62   0
   7  -3   0    1.55    4.86   0
  -7   3   0    3.14    2.57   0
   7  -3   0    1.50    1.79   0
  -7  -3   0    1.81    2.57   0
  -7  -3   0    3.15    2.40   0
  -7  -3   0    1.63    2.42   0
  -7   3   0    1.43    4.57   0
  -8  -3   0    8.69    2.74   0
  -8   3   0    9.30    1.99   0
  -8  -3   0    7.68    2.72   0
   8  -3   0    9.36    1.92   0
  -8  -3   0    8.09    2.76   0
  -9  -3   0   37.67    3.21   0
  -9   3   0   39.39    2.98   0
  -9  -3   0   39.56    2.30   0
  -9  -3   0   40.37    3.84   0
   9  -3   0   36.67    2.27   0
 -10  -3   0    0.66    3.56   0
 -10  -3   0    1.48    2.93   0
 -10   3   0    0.83    2.10   0
 -10  -3   0    0.09    3.59   0
 -11  -3   0    1.01    3.07   0
 -11  -3   0    1.23    5.51   0
 -11   3   0   -0.55    2.15   0
 -11  -3   0    2.24    5.66   0
 -12  -3   0   20.32    2.47   0
 -12   3   0   23.14    2.40   0
   0   4   0  342.82    5.02   0
   0  -4   0  354.34    5.33   0
   0  -4   0  346.89    6.05   0
   0   4   0  343.91    6.07   0
   1  -4   0  528.09    6.41   0
   1   4   0  508.03    8.66   0
  -1   4   0  495.27    6.06   0
  -1   4   0  507.86    6.22   0
   1   4   0  496.34    5.81   0
  -1  -4   0  513.65    6.09   0
   1  -4   0  517.15    6.52   0
  -1  -4   0  536.35    8.69   0
  -2  -4   0  372.95    4.98   0
  -2   4   0  371.01    5.76   0
  -2   4   0  383.51    5.31   0
  -2  -4   0  379.49    7.82   0
   2  -4   0  391.12    5.78   0
   2   4   0  376.90    5.36   0
   2  -4   0  380.36    4.91   0
   3  -4   0    8.81    2.56   0
   3   4   0    9.97    2.63   0
  -3   4   0    9.87    2.61   0
   3  -4   0    9.13    1.84   0
  -3   4   0    9.66    2.57   0
  -3  -4   0    8.84    1.88   0
   4  -4   0   21.39    2.60   0
  -4  -4   0   18.73    2.64   0
   4  -4   0   21.19    1.88   0
  -4   4   0   18.75    2.57   0
  -4   4   0   19.22    2.63   0
  -4  -4   0   18.66    2.07   0
  -5   4   0  274.38    5.51   0
  -5  -4   0  281.87    4.79   0
   5  -4   0  288.14    3.91   0
   5  -4   0  256.40    5.36   0
  -5   4   0  283.58    3.93   0
  -5  -4   0  275.44    4.55   0
  -6  -4   0   34.55    2.29   0
  -6   4   0   38.14    2.76   0
  -6  -4   0   34.21    2.18   0
   6  -4   0   36.27    2.79   0
   6  -4   0   36.66    3.61   0
  -6   4   0   33.22    3.08   0
  -7   4   0   56.12    2.23   0
  -7   4   0   56.58    4.60   0
  -7  -4   0   55.96    3.02   0
   7  -4   0   57.41    2.21   0
   7  -4   0   55.63    4.26   0
  -7  -4   0   55.05    3.08   0
  -7  -4   0   56.11    2.48   0
  -8  -4   0  131.36    3.87   0
   8  -4   0  131.23    2.73   0
  -8   4   0  127.02    2.62   0
  -8  -4   0  138.92    3.57   0
  -8  -4   0  132.16    3.88   0
  -9  -4   0   65.46    3.47   0
  -9  -4   0   64.39    3.40   0
   9  -4   0   62.10    2.34   0
  -9   4   0   62.25    3.17   0
  -9  -4   0   64.97    3.20   0
 -10  -4   0  201.34    4.10   0
 -10   4   0  195.12    3.14   0
  10  -4   0  199.68    3.77   0
 -10  -4   0  184.35    4.71   0
 -10  -4   0  204.08    5.40   0
 -11   4   0  162.67    3.68   0
 -11  -4   0  163.12    5.74   0
 -11  -4   0  153.90    5.63   0
 -11  -4   0  151.80    3.21   0
 -12  -4   0  162.75    4.10   0
 -12   4   0  149.12    3.90   0
   1  -5   0 1470.82    9.61   0
  -1   5   0 1452.15    9.48   0
  -1  -5   0 1515.64    8.99   0
   1   5   0 1420.69    8.60   0
   1  -5   0 1489.70    9.28   0
  -1   5   0 1470.63    9.34   0
   1   5   0 1479.15   12.47   0
  -1  -5   0 1520.10   12.30   0
  -2   5   0    7.56    1.86   0
  -2  -5   0    8.37    2.78   0
   2   5   0    7.09    1.94   0
  -2  -5   0    6.85    2.63   0
   2  -5   0   19.36    2.72   0
   2  -5   0    6.83    1.90   0
  -2   5   0    7.00    1.96   0
  -3   5   0  857.76    7.56   0
  -3   5   0  903.30    6.62   0
  -3  -5   0  902.59    7.01   0
  -3  -5   0  875.98    9.70   0
   3  -5   0  915.33    6.62   0
   3   5   0  836.97    6.63   0
   3  -5   0  852.90    7.25   0
  -4   5   0 1148.79    8.88   0
  -4   5   0 1123.62    6.63   0
   4  -5   0 1187.05    6.98   0
  -4  -5   0 1164.26    7.76   0
   4  -5   0 1103.05    8.57   0
   4   5   0 1112.38    7.64   0
  -5  -5   0  842.16    7.85   0
  -5  -5   0  764.50    6.11   0
  -5   5   0  800.07    7.84   0
   5  -5   0  772.33    7.76   0
  -5   5   0  804.53    5.36   0
   5  -5   0  801.20    5.33   0
  -6   5   0  363.42    4.11   0
   6  -5   0  343.03    6.05   0
  -6   5   0  352.63    5.77   0
  -6  -5   0  351.11    4.85   0
  -6  -5   0  365.09    5.23   0
   6  -5   0  365.68    4.10   0
  -7  -5   0  397.86    5.10   0
   7  -5   0  391.87    3.74   0
  -7   5   0  398.03    4.23   0
  -7  -5   0  397.06    5.13   0
   7  -5   0  403.18    6.64   0
  -7   5   0  395.34    6.87   0
  -7  -5   0  397.91    4.68   0
  -8  -5   0  283.66    4.66   0
   8  -5   0  289.56    7.41   0
   8  -5   0  291.12    3.87   0
  -8   5   0  280.87    7.25   0
  -8   5   0  284.93    3.94   0
  -8  -5   0  286.65    4.11   0
  -8  -5   0  280.64    4.74   0
   9  -5   0  240.98    3.81   0
  -9  -5   0  244.30    4.23   0
  -9  -5   0  231.93    4.56   0
  -9   5   0  234.07    3.86   0
  -9  -5   0  232.22    4.60   0
 -10  -5   0    9.54    3.03   0
 -10  -5   0    9.87    3.08   0
 -10  -5   0   10.73    2.99   0
  10  -5   0    8.90    2.99   0
 -10   5   0    6.10    3.09   0
 -11  -5   0    8.20    3.25   0
 -11  -5   0    8.30    3.19   0
 -11  -5   0    8.06    3.97   0
 -11   5   0    6.88    2.17   0
 -12  -5   0   37.62    3.53   0
 -12  -5   0   40.80    4.71   0
 -12  -5   0   37.84    4.68   0
 -12   5   0   35.39    2.55   0
   0  -6   0 4250.12   13.80   0
   0  -6   0 4228.92   16.81   0
   0   6   0 4028.28   13.38   0
   0   6   0 4214.09   16.81   0
   1  -6   0  475.68    5.68   0
  -1   6   0  476.86    5.68   0
   1  -6   0  483.02    5.35   0
  -1  -6   0  490.84    6.68   0
   1   6   0  477.89    6.78   0
  -1  -6   0  489.64    5.16   0
   1   6   0  457.80    4.79   0
  -1   6   0  480.26    5.38   0
   2   6   0   42.60    2.16   0
  -2  -6   0   43.66    3.23   0
  -2  -6   0   44.37    2.77   0
  -2   6   0   46.95    2.92   0
  -2   6   0   43.17    2.22   0
   2  -6   0   44.36    2.84   0
   2   6   0   43.55    3.30   0
   2  -6   0   42.73    2.24   0
   3   6   0  163.40    3.71   0
  -3   6   0  165.37    3.07   0
  -3  -6   0  175.60    4.87   0
   3  -6   0  173.47    3.54   0
  -3  -6   0  162.24    3.16   0
   3  -6   0  169.29    3.77   0
  -3   6   0  166.33    3.37   0
   4  -6   0    1.78    2.38   0
  -4   6   0    2.14    2.51   0
  -4   6   0    1.75    2.43   0
   4   6   0    1.99    2.52   0
   4  -6   0    1.22    2.40   0
  -4  -6   0    1.94    2.73   0
  -4  -6   0    2.11    1.79   0
  -5   6   0  184.00    4.10   0
  -5  -6   0  186.81    3.66   0
  -5  -6   0  192.82    4.44   0
   5  -6   0  196.44    3.56   0
  -5  -6   0  180.84    4.48   0
   5  -6   0  181.06    4.05   0
  -5   6   0  184.20    3.05   0
  -6  -6   0   35.19    2.87   0
  -6   6   0   34.43    2.94   0
   6  -6   0   33.87    2.02   0
  -6  -6   0   35.01    2.91   0
  -6   6   0   33.91    2.06   0
   6  -6   0   30.71    2.90   0
   7  -6   0   55.73    2.20   0
  -7   6   0   52.56    2.21   0
  -7   6   0   54.94    3.29   0
  -7  -6   0   54.36    2.52   0
   7  -6   0   56.48    3.44   0
  -7  -6   0   56.03    3.01   0
  -8  -6   0    4.77    2.72   0
   8  -6   0    7.32    1.94   0
  -8  -6   0    6.08    2.76   0
  -8   6   0    6.05    3.38   0
  -8  -6   0    5.24    2.00   0
   8  -6   0    5.53    2.77   0
  -8   6   0    5.74    2.74   0
   9  -6   0   30.24    5.20   0
  -9  -6   0   30.25    3.05   0
  -9   6   0   29.76    3.02   0
   9  -6   0   30.88    2.16   0
  -9  -6   0   30.95    3.13   0
  -9  -6   0   32.29    3.16   0
 -10  -6   0   13.27    3.11   0
 -10  -6   0   13.88    2.27   0
  10  -6   0   18.62    3.13   0
 -10   6   0   14.08    3.22   0
 -10  -6   0   13.47    3.12   0
 -11  -6   0  280.71    5.40   0
 -11  -6   0  288.87    5.95   0
  11  -6   0  300.59    4.24   0
 -11  -6   0  296.86    4.83   0
 -11   6   0  278.28    3.56   0
 -12  -6   0  185.78    5.88   0
 -12   6   0  189.66    4.02   0
 -12  -6   0  181.56    4.47   0
 -12  -6   0  189.12    5.78   0
  -1   7   0   88.27    2.59   0
   1   7   0   87.91    2.45   0
   1  -7   0   90.17    2.72   0
  -1   7   0   90.27    2.80   0
  -1  -7   0   89.98    2.99   0
  -1  -7   0   94.32    3.47   0
   1  -7   0   88.04    3.06   0
   1   7   0   88.11    3.02   0
  -2  -7   0  974.65    9.20   0
   2  -7   0  939.88    6.52   0
  -2   7   0  906.43    6.44   0
  -2  -7   0  949.18    6.38   0
   2   7   0  909.15    9.28   0
   2  -7   0  947.50    6.84   0
   2   7   0  881.27    5.96   0
  -2   7   0  962.54    6.84   0
  -3   7   0  540.88    4.75   0
  -3  -7   0  540.86    4.82   0
   3   7   0  519.80    4.75   0
   3  -7   0  568.44    5.55   0
  -3   7   0  550.59    5.55   0
   3  -7   0  546.10    4.78   0
  -3  -7   0  582.75    7.62   0
   4   7   0 1510.57    7.89   0
  -4   7   0 1520.23    8.88   0
  -4  -7   0 1480.74    7.56   0
  -4  -7   0 1562.98   11.72   0
   4  -7   0 1564.99    7.63   0
   4  -7   0 1476.85    8.74   0
  -4   7   0 1481.34    7.13   0
  -5  -7   0  508.85    6.71   0
   5  -7   0  496.94    5.67   0
  -5   7   0  499.73    4.31   0
   5  -7   0  528.57    4.74   0
  -5  -7   0  525.31    5.00   0
  -5   7   0  501.11    5.28   0
  -6   7   0 1905.82    7.55   0
  -6  -7   0 1891.08    8.62   0
  -6   7   0 1930.53   10.70   0
   6  -7   0 1971.06    7.87   0
  -6  -7   0 2045.96   11.91   0
   6  -7   0 1823.44   10.31   0
  -6  -7   0 1873.66   11.50   0
   7  -7   0  774.94    7.44   0
   7  -7   0  804.49    4.90   0
  -7   7   0  789.31    4.92   0
  -7  -7   0  826.70    7.26   0
  -7  -7   0  797.22    5.82   0
  -7   7   0  796.00    7.60   0
  -8   7   0   34.33    3.17   0
   8  -7   0   33.36    2.12   0
  -8  -7   0   34.33    3.00   0
  -8   7   0   32.96    2.19   0
   8  -7   0   35.59    3.85   0
  -8  -7   0   40.37    3.11   0
  -8  -7   0   34.02    2.97   0
  -9  -7   0  485.87    5.47   0
  -9  -7   0  469.44    5.16   0
   9  -7   0  487.54    8.11   0
  -9   7   0  491.90    4.64   0
   9  -7   0  499.48    4.10   0
  -9  -7   0  459.32    5.39   0
 -10  -7   0  177.59    4.24   0
 -10  -7   0  181.68    4.23   0
  10  -7   0  180.74    3.68   0
 -10  -7   0  160.41    3.54   0
 -10   7   0  174.04    3.70   0
 -11  -7   0    1.51    3.26   0
  11  -7   0    0.91    3.19   0
 -11   7   0   -1.05    3.30   0
 -11  -7   0    2.05    3.22   0
 -11  -7   0    2.17    3.20   0
 -12  -7   0   34.18    3.77   0
 -12   7   0   33.02    2.69   0
 -12  -7   0   36.34    3.90   0
 -12  -7   0   35.09    3.70   0
   0   8   0  176.85    3.87   0
   0   8   0  175.29    3.45   0
   0  -8   0  168.64    2.94   0
   0  -8   0  174.84    3.83   0
  -1  -8   0 1231.45    6.66   0
  -1   8   0 1207.75    6.84   0
  -1  -8   0 1278.56    9.15   0
   1   8   0 1189.91    6.66   0
   1  -8   0 1256.52    7.15   0
   1  -8   0 1237.24    7.65   0
  -1   8   0 1225.92    7.61   0
   1   8   0 1265.28    9.37   0
   2  -8   0 1566.06    8.28   0
  -2  -8   0 1569.52   10.86   0
   2   8   0 1464.28   10.99   0
  -2   8   0 1484.16    7.82   0
  -2  -8   0 1565.11    7.60   0
   2  -8   0 1520.45    7.96   0
   2   8   0 1437.43    7.20   0
  -2   8   0 1450.64    7.53   0
   3  -8   0  522.70    4.62   0
  -3  -8   0  554.93    7.07   0
   3  -8   0  515.71    4.76   0
   3   8   0  510.26    4.83   0
  -3  -8   0  516.78    4.48   0
  -3   8   0  513.41    4.59   0
  -3   8   0  520.78    5.20   0
   4  -8   0   -0.96    2.57   0
  -4   8   0    1.28    1.94   0
  -4   8   0    2.42    2.63   0
  -4  -8   0    1.16    1.80   0
  -4  -8   0    0.27    2.60   0
   4  -8   0    0.69    1.71   0
   4   8   0    0.97    1.81   0
  -5  -8   0  107.01    3.97   0
   5  -8   0  100.57    2.82   0
   5  -8   0  107.14    2.52   0
  -5   8   0   95.87    2.52   0
  -5  -8   0  107.37    3.14   0
  -5   8   0  103.99    2.86   0
  -6  -8   0   30.06    3.07   0
  -6   8   0   28.25    2.04   0
   6  -8   0   25.60    2.03   0
  -6  -8   0   28.45    2.84   0
   6  -8   0   25.17    2.92   0
  -6  -8   0   28.53    3.18   0
  -6   8   0   27.77    2.96   0
  -7  -8   0   73.43    3.49   0
  -7  -8   0   74.87    3.07   0
   7  -8   0   66.29    3.34   0
  -7   8   0   66.96    3.40   0
  -7   8   0   68.89    3.04   0
   7  -8   0   72.35    2.28   0
  -7  -8   0   70.83    3.51   0
  -8   8   0  227.40    3.74   0
  -8   8   0  210.76    4.61   0
   8  -8   0  213.80    4.68   0
  -8  -8   0  224.17    4.62   0
  -8  -8   0  210.84    4.65   0
   8  -8   0  219.78    3.64   0
  -8  -8   0  204.41    3.33   0
   9  -8   0  382.06    4.25   0
  -9  -8   0  338.42    4.23   0
  -9   8   0  349.41    3.69   0
  -9  -8   0  366.88    5.41   0
  -9  -8   0  353.70    4.27   0
   9  -8   0  356.26    6.17   0
  -9  -8   0  346.14    5.46   0
  10  -8   0   46.90    5.22   0
 -10  -8   0   47.50    3.32   0
 -10  -8   0   44.21    3.61   0
 -10  -8   0   48.58    3.32   0
  10  -8   0   54.86    3.29   0
 -10   8   0   48.19    3.37   0
 -10  -8   0   45.32    3.67   0
 -11  -8   0  157.13    4.34   0
 -11   8   0  166.61    4.04   0
  11  -8   0  171.64    3.90   0
 -11  -8   0  151.44    4.41   0
 -11  -8   0  164.50    4.33   0
  -1  -9   0    1.71    2.55   0
  -1   9   0    0.15    2.57   0
   1  -9   0    2.25    2.51   0
  -1   9   0    1.20    1.82   0
  -1  -9   0    1.90    2.44   0
   1  -9   0    2.96    2.48   0
   1   9   0    7.43    1.96   0
   1   9   0    1.62    1.72   0
   2   9   0    8.98    1.88   0
  -2  -9   0   10.70    2.72   0
  -2   9   0   10.96    2.63   0
   2   9   0    9.15    2.78   0
  -2  -9   0   12.17    2.51   0
   2  -9   0    9.48    1.81   0
   2  -9   0   11.84    1.83   0
  -2   9   0   10.06    1.86   0
  -3  -9   0  306.32    5.29   0
   3  -9   0  299.04    4.07   0
  -3   9   0  300.19    4.05   0
  -3   9   0  293.27    4.09   0
  -3  -9   0  299.20    3.93   0
   3   9   0  275.39    3.44   0
   3  -9   0  313.27    4.07   0
   4  -9   0  434.22    4.74   0
  -4  -9   0  455.15    6.50   0
  -4  -9   0  437.68    4.52   0
   4  -9   0  448.94    4.63   0
  -4   9   0  417.64    4.06   0
  -4   9   0  421.58    4.81   0
   4   9   0  409.95    4.48   0
   5  -9   0  266.11    3.34   0
  -5   9   0  263.05    3.72   0
  -5  -9   0  260.27    3.35   0
  -5  -9   0  269.75    5.32   0
   5  -9   0  263.76    4.13   0
  -5   9   0  260.68    3.36   0
  -6   9   0  636.35    4.97   0
  -6  -9   0  638.41    7.27   0
  -6  -9   0  637.66    7.42   0
   6  -9   0  570.00    5.37   0
  -6  -9   0  602.78    4.85   0
   6  -9   0  641.58    4.93   0
  -6   9   0  584.96    5.47   0
  -7   9   0  666.38    4.63   0
  -7  -9   0  715.05    7.46   0
   7  -9   0  654.40    6.29   0
  -7  -9   0  695.16    7.51   0
  -7   9   0  659.69    6.36   0
   7  -9   0  721.29    5.15   0
  -7  -9   0  671.90    5.08   0
  -8  -9   0  572.20    6.81   0
  -8  -9   0  605.49    6.93   0
  -8   9   0  561.04    4.82   0
   8  -9   0  577.97    4.31   0
  -8   9   0  557.42    6.41   0
  -8  -9   0  565.25    4.89   0
   8  -9   0  555.69    6.40   0
  -9  -9   0   71.63    3.78   0
  -9   9   0   70.06    2.55   0
  -9  -9   0   64.84    3.43   0
   9  -9   0   72.40    2.46   0
   9  -9   0   69.40    3.80   0
  -9  -9   0   73.92    3.70   0
  -9  -9   0   66.98    2.62   0
 -10  -9   0   92.89    4.06   0
 -10  -9   0   93.23    3.68   0
 -10  -9   0   99.79    4.01   0
  10  -9   0   92.45    2.68   0
  10  -9   0   94.38    5.07   0
 -10   9   0  100.70    3.53   0
 -10  -9   0   89.42    2.97   0
 -11   9   0   22.20    3.50   0
 -11  -9   0   19.48    3.70   0
  11  -9   0   20.56    2.34   0
 -11  -9   0   21.18    3.70   0
 -11  -9   0   22.14    3.51   0
 -11  -9   0   23.07    3.59   0
   0  10   0  441.89    4.92   0
   0 -10   0  431.84    3.96   0
   0 -10   0  436.22    4.80   0
   0  10   0  443.31    4.43   0
   1  10   0  722.21    6.78   0
   1 -10   0  748.82    5.39   0
   1 -10   0  717.76    5.64   0
   1  10   0  715.57    5.25   0
  -1 -10   0  726.15    5.21   0
  -1 -10   0  741.81    6.83   0
  -1  10   0  693.85    4.98   0
  -1  10   0  727.39    5.73   0
   2 -10   0  695.87    5.26   0
   2 -10   0  693.40    5.02   0
  -2 -10   0  710.09    6.94   0
   2  10   0  667.04    7.08   0
  -2  10   0  702.53    5.68   0
  -2 -10   0  680.57    4.79   0
   2  10   0  675.74    5.13   0
  -2  10   0  678.47    5.40   0
   3  10   0  119.23    3.17   0
   3 -10   0  117.54    2.57   0
   3 -10   0  116.73    2.72   0
  -3 -10   0  122.01    3.18   0
  -3  10   0  110.81    2.59   0
  -3  10   0  117.68    3.19   0
  -3 -10   0  122.27    3.87   0
   4 -10   0   26.99    2.75   0
  -4  10   0   26.18    2.78   0
   4  10   0   24.72    2.76   0
   4 -10   0   26.08    2.79   0
  -4 -10   0   26.58    3.53   0
  -4 -10   0   24.64    2.61   0
  -4  10   0   25.80    2.09   0
  -5 -10   0   38.51    2.09   0
   5 -10   0   38.00    2.20   0
   5 -10   0   41.12    2.27   0
  -5 -10   0   38.81    3.23   0
  -5  10   0   38.65    3.03   0
  -5  10   0   39.18    3.01   0
  -6  10   0   30.73    2.25   0
  -6 -10   0   31.54    3.74   0
  -6 -10   0   28.93    2.11   0
   6 -10   0   31.65    2.88   0
   6 -10   0   31.56    2.98   0
  -6  10   0   30.96    2.98   0
  -6 -10   0   32.23    3.21   0
  -7 -10   0   43.38    3.04   0
  -7  10   0   41.61    3.22   0
  -7 -10   0   45.47    3.42   0
   7 -10   0   39.55    2.40   0
  -7 -10   0   44.18    3.97   0
   7 -10   0   50.21    2.95   0
  -7  10   0   47.84    3.06   0
  -8  10   0  160.68    4.22   0
  -8 -10   0  169.16    4.64   0
  -8 -10   0  170.55    4.59   0
  -8  10   0  162.14    2.97   0
   8 -10   0  151.46    4.17   0
  -8 -10   0  172.93    3.83   0
   8 -10   0  177.03    3.62   0
  -9 -10   0   48.36    3.59   0
  -9 -10   0   51.99    4.31   0
   9 -10   0   54.67    3.16   0
   9 -10   0   46.06    3.72   0
  -9 -10   0   46.05    2.47   0
  -9  10   0   46.68    2.56   0
  -9 -10   0   47.60    3.37   0
  10 -10   0   55.37    4.57   0
 -10  10   0   58.49    3.45   0
 -10 -10   0   55.26    3.86   0
  10 -10   0   64.11    3.44   0
 -10 -10   0   54.70    3.86   0
 -10 -10   0   47.57    2.70   0
 -10 -10   0   53.06    2.65   0
 -11 -10   0   50.27    3.74   0
 -11 -10   0   50.28    4.05   0
 -11 -10   0   49.27    4.89   0
  -1  11   0   20.91    2.79   0
   1  11   0   18.93    2.58   0
   1  11   0   19.76    2.90   0
   1 -11   0   18.29    2.64   0
  -1 -11   0   19.31    2.72   0
  -1  11   0   17.22    1.96   0
  -1 -11   0   19.31    1.86   0
   1 -11   0   21.44    1.96   0
   2 -11   0    6.38    1.92   0
   2  11   0    9.31    1.88   0
  -2 -11   0    6.33    1.86   0
   2 -11   0    6.18    2.65   0
  -2 -11   0    8.18    2.71   0
   2  11   0    7.93    2.87   0
  -2  11   0    7.53    1.89   0
  -2  11   0    6.39    1.89   0
   3  11   0  259.37    3.80   0
  -3 -11   0  264.64    3.31   0
  -3 -11   0  278.75    5.03   0
  -3  11   0  254.60    3.41   0
   3 -11   0  264.76    3.45   0
  -3  11   0  279.88    4.05   0
   3 -11   0  280.74    3.94   0
  -4  11   0   56.21    2.29   0
  -4 -11   0   58.02    2.28   0
   4 -11   0   58.45    2.95   0
   4  11   0   53.30    2.18   0
  -4 -11   0   60.20    3.38   0
   4 -11   0   58.26    3.05   0
  -4  11   0   54.64    2.97   0
  -5 -11   0   12.56    3.45   0
  -5  11   0   11.56    2.88   0
   5 -11   0   12.46    2.84   0
  -5 -11   0   12.46    2.76   0
   5 -11   0   11.53    2.78   0
  -5  11   0   11.20    2.79   0
  -6  11   0   22.33    2.96   0
   6 -11   0   24.89    2.99   0
  -6  11   0   22.81    2.22   0
  -6 -11   0   21.53    2.85   0
  -6 -11   0   24.75    3.14   0
   6 -11   0   23.81    2.91   0
  -7 -11   0  101.86    4.09   0
   7 -11   0   91.25    3.53   0
  -7 -11   0  100.69    3.32   0
   7 -11   0  100.50    3.35   0
  -7  11   0   90.48    2.68   0
  -7  11   0   86.52    2.80   0
  -7 -11   0  102.17    4.11   0
  -8 -11   0  284.25    5.79   0
  -8  11   0  263.27    4.69   0
  -8 -11   0  283.03    4.23   0
   8 -11   0  256.19    4.61   0
   8 -11   0  292.03    4.11   0
  -8 -11   0  283.39    6.16   0
  -8  11   0  280.04    4.17   0
  -9 -11   0   39.68    2.51   0
  -9 -11   0   39.57    4.32   0
  -9  11   0   32.97    3.28   0
  -9 -11   0   39.79    3.76   0
   9 -11   0   38.66    3.25   0
   9 -11   0   32.23    3.59   0
  -9 -11   0   35.28    3.39   0
 -10  11   0   40.80    3.48   0
  10 -11   0   53.79    3.39   0
 -10 -11   0   43.34    4.45   0
 -10 -11   0   47.71    4.57   0
  10 -11   0   43.55    3.91   0
 -10 -11   0   46.48    3.54   0
 -10 -11   0   42.29    2.67   0
   0 -12   0   99.47    2.51   0
   0 -12   0  105.45    3.35   0
   0  12   0  100.38    3.11   0
   0  12   0  104.96    3.47   0
   1  12   0    9.47    2.96   0
   1 -12   0    9.23    1.89   0
  -1 -12   0   10.24    2.55   0
   1 -12   0   11.40    2.65   0
   1  12   0    7.59    1.89   0
  -1  12   0    9.19    2.74   0
  -1  12   0    9.58    2.88   0
  -1 -12   0    8.92    2.66   0
   2 -12   0  209.35    3.08   0
   2  12   0  201.30    2.98   0
  -2  12   0  204.71    3.29   0
   2 -12   0  215.56    3.81   0
   2  12   0  210.00    4.68   0
  -2 -12   0  213.85    3.50   0
  -2 -12   0  219.54    4.42   0
  -2  12   0  200.69    3.01   0
  -3  12   0   48.24    2.28   0
   3  12   0   51.32    2.23   0
  -3  12   0   54.68    3.06   0
  -3 -12   0   56.04    3.22   0
   3 -12   0   52.26    2.32   0
   3 -12   0   53.94    3.03   0
  -3 -12   0   51.77    2.22   0
  -4  12   0    0.45    1.95   0
   4 -12   0    2.49    2.76   0
  -4 -12   0    2.16    2.71   0
   4  12   0    8.77    2.00   0
  -4  12   0    1.96    1.93   0
  -4 -12   0   -1.11    2.75   0
   4 -12   0    8.48    1.96   0
  -5  12   0   14.63    2.94   0
  -5 -12   0   15.23    3.59   0
  -5  12   0   16.02    2.95   0
  -5 -12   0   14.10    2.01   0
   5 -12   0   15.97    2.13   0
   5 -12   0   14.32    2.15   0
  -6 -12   0    7.25    1.94   0
  -6  12   0    6.72    2.15   0
   6 -12   0    6.37    2.02   0
  -6  12   0    8.72    2.87   0
  -6 -12   0    6.45    3.60   0
   6 -12   0    6.06    2.95   0
  -7 -12   0    4.16    2.05   0
  -7 -12   0    4.58    3.75   0
  -7 -12   0    3.80    3.73   0
   7 -12   0    4.12    2.07   0
   7 -12   0    5.59    3.10   0
  -7  12   0    9.09    3.14   0
  -7  12   0    1.37    3.06   0
  -8 -12   0    8.90    3.99   0
  -8  12   0    6.67    3.23   0
  -8  12   0    6.93    2.29   0
   8 -12   0    6.46    2.21   0
   8 -12   0    6.96    3.20   0
  -8 -12   0    6.49    2.18   0
  -8 -12   0    8.61    3.92   0
   9 -12   0   45.92    3.62   0
  -9 -12   0   54.09    4.63   0
  -9 -12   0   52.56    4.58   0
  -9  12   0   51.95    3.58   0
   9 -12   0   55.06    3.42   0
  -9 -12   0   48.90    2.63   0
  -1 -13   0    6.94    1.89   0
  -1  13   0    8.38    2.05   0
   1  13   0    7.43    2.73   0
   1  13   0    6.16    2.17   0
  -1  13   0    6.42    2.01   0
   1 -13   0    7.05    1.95   0
   1 -13   0    4.95    2.81   0
  -1 -13   0    8.75    2.79   0
   2 -13   0   82.86    2.43   0
   2  13   0   82.48    3.69   0
   2 -13   0   87.12    2.57   0
  -2 -13   0   85.02    2.44   0
  -2  13   0   87.51    2.66   0
  -2 -13   0   85.20    3.49   0
   2  13   0   79.78    2.41   0
  -2  13   0   86.21    3.18   0
   3  13   0  314.11    3.46   0
  -3 -13   0  341.01    5.36   0
   3 -13   0  332.94    3.76   0
  -3  13   0  339.53    4.26   0
  -3 -13   0  346.10    4.05   0
  -3  13   0  345.51    4.35   0
   3 -13   0  329.19    3.69   0
  -4  13   0  813.42    5.72   0
  -4 -13   0  860.35    5.60   0
   4 -13   0  802.99    5.32   0
  -4  13   0  763.29    5.26   0
  -4 -13   0  857.31    8.69   0
   4 -13   0  819.10    5.35   0
   4  13   0  762.93    5.43   0
   5 -13   0   66.33    2.58   0
  -5  13   0   65.66    2.53   0
  -5 -13   0   74.51    4.40   0
  -5  13   0   68.31    2.55   0
   5 -13   0   70.14    2.50   0
  -5 -13   0   71.10    3.12   0
   6 -13   0   62.46    3.40   0
  -6  13   0   62.82    3.40   0
  -6 -13   0   65.43    3.21   0
  -6  13   0   55.78    2.47   0
   6 -13   0   69.65    3.35   0
  -6 -13   0   67.88    4.54   0
   7 -13   0  213.87    3.68   0
  -7  13   0  226.16    4.42   0
  -7 -13   0  246.39    6.76   0
  -7  13   0  232.40    3.35   0
  -7 -13   0  238.18    6.67   0
   7 -13   0  254.60    3.95   0
  -7 -13   0  243.71    4.01   0
  -8  13   0   79.48    2.68   0
  -8 -13   0   93.14    3.53   0
   8 -13   0   84.87    3.87   0
   8 -13   0   91.83    2.78   0
  -8 -13   0   91.19    5.88   0
  -8 -13   0   88.26    5.37   0
  -8  13   0   76.39    3.00   0
  -9 -13   0   46.14    5.63   0
  -9  13   0   45.60    2.64   0
  -9 -13   0   51.38    3.54   0
  -9 -13   0   47.80    6.19   0
   9 -13   0   44.42    3.70   0
   9 -13   0   48.57    2.58   0
   0 -14   0  429.05    5.06   0
   0  14   0  400.14    4.31   0
   0  14   0  413.13    5.15   0
   0 -14   0  404.38    3.72   0
  -1 -14   0  126.62    3.69   0
  -1  14   0  125.01    3.67   0
   1 -14   0  120.39    2.71   0
   1 -14   0  124.31    2.90   0
   1  14   0  115.14    3.21   0
  -1  14   0  115.89    3.50   0
   1  14   0  115.32    2.66   0
  -1 -14   0  130.22    3.26   0
  -2 -14   0   29.54    2.90   0
  -2  14   0   28.47    3.11   0
   2 -14   0   30.28    3.06   0
   2  14   0   24.90    3.40   0
   2  14   0   22.00    2.98   0
  -2  14   0   25.71    2.22   0
   2 -14   0   27.72    2.92   0
  -2 -14   0   27.52    3.16   0
  -3  14   0  105.27    2.81   0
   3 -14   0  107.58    3.45   0
   3  14   0  102.40    3.39   0
  -3  14   0   93.34    2.75   0
  -3 -14   0  102.33    2.58   0
  -3 -14   0  109.26    3.87   0
   3 -14   0  106.66    3.47   0
  -4 -14   0   23.35    3.92   0
  -4  14   0   24.66    3.14   0
  -4 -14   0   22.17    2.19   0
   4 -14   0   22.36    2.26   0
  -4  14   0   26.63    3.21   0
   4 -14   0   25.28    3.07   0
   5 -14   0   16.90    3.10   0
  -5  14   0   14.81    3.15   0
  -5  14   0   17.26    2.24   0
  -5 -14   0   17.60    2.91   0
   5 -14   0   19.93    3.00   0
  -5 -14   0   16.43    3.89   0
   6 -14   0   44.49    3.36   0
  -6  14   0   36.65    2.56   0
  -6 -14   0   40.83    4.44   0
   6 -14   0   47.79    3.26   0
  -6  14   0   39.82    2.43   0
  -6 -14   0   41.38    2.40   0
  -6 -14   0   30.20    3.69   0
  -7 -14   0    3.84    2.26   0
  -7  14   0    3.02    3.31   0
  -7 -14   0    3.08    5.20   0
  -7  14   0    1.48    3.36   0
   7 -14   0    2.98    2.16   0
   7 -14   0    2.62    3.24   0
  -7 -14   0    3.06    5.24   0
  -8  14   0   30.41    3.56   0
   8 -14   0   37.25    3.49   0
   8 -14   0   27.96    2.60   0
  -8 -14   0   30.78    3.34   0
   1  15   0    2.31    2.04   0
  -1 -15   0   -0.55    2.88   0
   1 -15   0    0.08    2.99   0
  -1 -15   0   -1.36    2.79   0
  -1  15   0    0.01    2.24   0
  -1  15   0    3.06    3.09   0
   1  15   0   -1.57    3.15   0
   1 -15   0    1.74    2.13   0
   2 -15   0  303.04    4.39   0
  -2  15   0  263.53    3.42   0
   2 -15   0  297.83    4.01   0
   2  15   0  269.50    3.96   0
  -2 -15   0  303.70    3.92   0
   2  15   0  270.43    5.08   0
  -2  15   0  285.57    4.44   0
  -2 -15   0  296.80    5.04   0
  -3  15   0 1131.19    6.11   0
  -3 -15   0 1217.74    5.94   0
   3  15   0 1166.65    6.31   0
  -3  15   0 1169.80    6.60   0
   3 -15   0 1249.63    6.65   0
  -3 -15   0 1263.31    9.87   0
   3 -15   0 1248.14    6.70   0
  -4 -15   0  659.40    5.19   0
  -4  15   0  621.97    5.40   0
  -4 -15   0  657.52    7.76   0
   4 -15   0  669.29    5.49   0
  -4  15   0  674.32    5.53   0
   4 -15   0  667.67    5.38   0
  -5  15   0  696.69    5.67   0
  -5 -15   0  675.61    4.84   0
  -5 -15   0  701.27    9.49   0
   5 -15   0  705.02    5.67   0
  -5  15   0  658.03    5.63   0
   5 -15   0  681.98    4.98   0
  -6  15   0  397.59    4.75   0
  -6  15   0  357.38    4.36   0
  -6 -15   0  414.91    4.64   0
  -6 -15   0  413.08    9.59   0
   6 -15   0  373.09    4.98   0
   6 -15   0  411.83    4.73   0
  -6 -15   0  412.61    9.98   0
  -7 -15   0  472.71    5.02   0
  -7  15   0  421.91    4.90   0
   7 -15   0  456.33    4.40   0
  -7  15   0  449.23    4.52   0
   7 -15   0  417.24    5.39   0
   0  16   0    2.26    3.15   0
   0  16   0    2.45    3.18   0
   0 -16   0    2.27    2.97   0
   0 -16   0    2.65    2.10   0
   1  16   0   38.21    3.59   0
  -1 -16   0   36.03    2.39   0
  -1  16   0   38.70    3.49   0
   1  16   0   39.38    3.25   0
   1 -16   0   37.76    2.30   0
  -1 -16   0   38.85    3.36   0
   1 -16   0   39.53    3.28   0
  -1  16   0   34.68    2.36   0
   2 -16   0   22.94    2.29   0
   2  16   0   20.41    2.35   0
   2 -16   0   22.17    3.21   0
  -2 -16   0   22.21    2.28   0
  -2 -16   0   20.70    3.37   0
   2  16   0   21.13    3.48   0
  -2  16   0   20.77    3.19   0
  -2  16   0   20.77    3.36   0
  -3 -16   0   64.75    3.38   0
   3 -16   0   62.23    3.41   0
  -3 -16   0   62.77    3.72   0
  -3  16   0   56.76    3.47   0
   3 -16   0   64.22    3.38   0
  -3  16   0   57.36    2.71   0
  -4 -16   0   -1.25    3.16   0
  -4  16   0   -0.63    2.30   0
  -4  16   0    1.89    2.21   0
   4 -16   0    6.56    3.04   0
   4 -16   0    1.00    3.20   0
  -4 -16   0    1.31    3.92   0
  -5 -16   0   56.23    4.76   0
  -5  16   0   59.37    3.63   0
   5 -16   0   51.56    2.65   0
  -5 -16   0   60.22    3.41   0
   5 -16   0   53.71    3.51   0
  -5  16   0   50.39    2.70   0
  -6  16   0   88.22    3.86   0
   6 -16   0   91.66    3.68   0
  -6 -16   0   81.76    2.87   0
  -6  16   0   79.10    2.87   0
   6 -16   0   83.75    3.75   0
   1  17   0   48.67    3.76   0
   1 -17   0   56.19    3.50   0
  -1  17   0   54.80    2.77   0
   1  17   0   51.12    2.56   0
  -1  17   0   58.17    3.49   0
   1 -17   0   57.52    3.43   0
  -1 -17   0   59.38    3.29   0
  -1 -17   0   58.68    3.56   0
   2  17   0  333.77    5.79   0
   2 -17   0  354.59    4.82   0
  -2 -17   0  353.67    4.38   0
  -2  17   0  351.72    4.99   0
   2 -17   0  357.31    4.52   0
  -2  17   0  316.87    3.82   0
  -2 -17   0  347.21    5.70   0
   3 -17   0  288.90    3.71   0
  -3  17   0  283.59    4.49   0
  -3 -17   0  307.32    5.75   0
   3 -17   0  295.34    4.73   0
  -3  17   0  281.29    4.70   0
  -3 -17   0  301.70    3.62   0
  -4 -17   0   52.43    2.54   0
  -4 -17   0   54.23    4.67   0
  -4  17   0   50.01    2.73   0
   4 -17   0   51.43    3.54   0
   4 -17   0   52.80    3.61   0
  -4  17   0   47.50    2.80   0
  -5 -17   0  143.45    7.00   0
   5 -17   0  152.84    4.05   0
  -5 -17   0  133.84    3.87   0
  -5  17   0  129.94    4.19   0
   5 -17   0  131.29    3.20   0
  -5  17   0  131.22    3.31   0
   0  18   0   45.81    3.52   0
   0 -18   0   47.74    3.70   0
   0 -18   0   48.79    3.41   0
   0  18   0   40.12    2.93   0
  -1 -18   0    0.18    2.28   0
   1  18   0    0.54    3.51   0
  -1  18   0   -1.01    2.54   0
   1 -18   0    0.82    2.21   0
  -1 -18   0    0.80    2.34   0
   1 -18   0    1.63    2.29   0
  -1  18   0    1.15    2.39   0
  -2  18   0   19.81    2.57   0
   2 -18   0   22.72    3.46   0
  -2  18   0   22.07    3.61   0
  -2 -18   0   25.43    3.65   0
   2 -18   0   20.78    2.46   0
   2  18   0   18.21    3.75   0
  -2 -18   0   25.83    3.33   0
 -13  -1   1  260.11    4.51   0
 -13   1   1  255.93    4.37   0
 -12   1   1  214.55    4.12   0
 -12  -1   1  209.42    3.40   0
 -11   1   1  903.20    5.53   0
 -11  -1   1  904.24    5.70   0
 -10  -1   1 1137.52   13.85   0
 -10  -1   1 1127.96    6.23   0
 -10   1   1 1163.57    6.59   0
 -10  -1   1 1096.50   13.22   0
  -9  -1   1   28.69    3.00   0
  -9   1   1   28.84    5.44   0
  -9  -1   1   30.20    3.85   0
  -9  -1   1   26.98    3.67   0
  -9   1   1   29.48    2.79   0
  -9   1   1   26.46    5.02   0
  -8  -1   1    8.61    3.31   0
  -8  -1   1    9.29    1.84   0
  -8   1   1    8.34    1.94   0
  -8  -1   1    7.93    2.61   0
  -8   1   1    9.45    3.46   0
  -7  -1   1   28.05    2.69   0
  -7   1   1   28.31    2.79   0
  -7  -1   1   27.13    2.94   0
  -7  -1   1   26.30    2.86   0
  -7   1   1   29.98    3.61   0
  -6  -1   1  581.98    5.59   0
  -6   1   1  579.70    8.73   0
  -6  -1   1  631.59    7.73   0
  -6   1   1  596.24    5.00   0
   6  -1  -1  592.54    8.55   0
  -5  -1   1 1354.93   11.16   0
   5  -1  -1 1331.13    7.71   0
  -5   1   1 1319.63   12.74   0
  -5  -1   1 1362.95    8.61   0
  -5   1   1 1304.04    7.74   0
   5  -1  -1 1329.35   12.33   0
  -4   1   1  869.16   10.68   0
   4  -1  -1  864.14   10.30   0
  -4  -1   1  852.23    9.24   0
   4  -1  -1  861.17    6.88   0
  -4   1   1  845.25    6.84   0
  -4  -1   1  873.05    7.67   0
  -3   1   1 4606.61   17.40   0
  -3  -1   1 4403.75   21.64   0
  -3   1   1 4416.93   24.73   0
   3  -1  -1 4481.84   17.02   0
   3  -1  -1 4501.94   24.20   0
  -2   1   1 1345.52   11.34   0
   2  -1  -1 1379.80   11.37   0
   2  -1  -1 1384.84   14.72   0
  -2  -1   1 1336.84   13.15   0
   2   1  -1 1411.25   13.36   0
  -2   1   1 1363.79   14.79   0
  -1   1   1 5621.34   30.70   0
   1  -1  -1 5405.84   30.04   0
   1   1  -1 5932.78   29.94   0
  -1  -1   1 5154.93   30.70   0
  -1  -1   1 5682.79   29.48   0
  -1   1   1 5427.72   30.58   0
   0   1  -1 2006.67   18.56   0
   0  -1   1 2060.61   18.85   0
   0  -1  -1 1877.76   18.54   0
   0   1   1 1912.78   18.93   0
   0  -1   1 1960.80   19.96   0
   1  -1   1  474.10   11.90   0
  -1  -1  -1  501.70   11.72   0
  -1   1  -1  507.02    8.02   0
   1   1   1  471.40    9.44   0
   1  -1   1  499.60    7.92   0
  -1  -1  -1  485.97    9.89   0
   1   1   1  503.00   11.75   0
   2   1   1 3469.11   20.22   0
  -2  -1  -1 3482.69   24.53   0
  -2  -1  -1 3610.04   20.73   0
   2  -1   1 3443.41   16.27   0
  -2   1  -1 3471.38   16.31   0
   2   1   1 3491.39   24.44   0
   3   1   1  373.75    6.01   0
  -3  -1  -1  357.61    8.00   0
  -3   1  -1  356.94    4.91   0
   3   1   1  347.10    8.07   0
  -3  -1  -1  376.09    6.00   0
   3  -1   1  372.42    5.32   0
   4  -1   1    8.19    1.90   0
   4   1   1    8.77    2.60   0
  -4  -1  -1    8.92    2.68   0
  -4   1  -1    7.64    1.92   0
  -4  -1  -1   11.21    2.74   0
  -5  -1  -1  643.26    5.83   0
   5   1   1  641.82    5.87   0
  -5  -1  -1  639.68   10.36   0
  -5   1  -1  630.29    5.36   0
  -5  -1  -1  652.78   10.60   0
   5  -1   1  648.69    5.74   0
   6  -1   1 1412.96    7.33   0
  -6  -1  -1 1462.01   16.34   0
  -6   1  -1 1466.71    7.75   0
  -6  -1  -1 1490.79    8.30   0
   6   1   1 1441.58    7.95   0
  -6  -1  -1 1376.02   16.06   0
   7  -1   1 2145.91    8.81   0
  -7  -1  -1 2125.06    9.30   0
  -7  -1  -1 1985.08   25.45   0
  -7   1  -1 2100.51    8.82   0
  -7  -1  -1 2188.60   26.62   0
  -8  -1  -1 1203.82    7.20   0
   8  -1   1 1152.93    6.27   0
  -8   1  -1 1204.84    6.71   0
   9  -1   1  318.40    3.67   0
  -9   1  -1  332.14    4.22   0
  -9  -1  -1  342.73    4.43   0
 -10  -1  -1  512.43    4.55   0
 -10   1  -1  533.87    4.51   0
 -11   1  -1  286.07    3.71   0
 -11  -1  -1  292.43    3.77   0
 -12   1  -1  293.17    3.76   0
 -12  -1  -1  304.30    4.62   0
 -13  -2   1   67.19    3.72   0
 -13   2   1   61.01    3.69   0
 -12  -2   1    2.39    2.23   0
 -12   2   1    1.59    2.29   0
 -11   2   1    3.70    3.05   0
 -11  -2   1    2.18    4.27   0
 -11  -2   1   -0.09    3.11   0
 -11  -2   1    1.93    5.00   0
 -10  -2   1   74.62    4.38   0
 -10   2   1   75.37    3.14   0
 -10  -2   1   77.54    4.63   0
 -10  -2   1   74.32    3.28   0
  -9  -2   1   67.45    3.62   0
  -9  -2   1   66.24    3.09   0
  -9  -2   1   65.60    4.00   0
  -9   2   1   63.88    7.61   0
  -9   2   1   64.40    2.42   0
  -8  -2   1   55.16    3.22   0
  -8   2   1   57.78    3.01   0
  -8  -2   1   60.94    3.80   0
  -8  -2   1   59.93    3.04   0
  -8   2   1   55.52    4.26   0
  -7  -2   1   77.11    3.38   0
  -7  -2   1   74.25    3.03   0
  -7   2   1   74.82    4.24   0
  -7   2   1   73.72    3.03   0
   7  -2  -1   74.99    2.38   0
  -7  -2   1   72.59    3.29   0
   7  -2  -1   71.67    4.11   0
   6  -2  -1    8.59    3.14   0
  -6  -2   1    9.13    2.57   0
  -6  -2   1   12.35    2.66   0
  -6   2   1    9.72    2.58   0
  -6  -2   1    8.84    2.60   0
  -6   2   1    9.14    3.21   0
   6  -2  -1    7.57    1.82   0
  -5   2   1  224.80    3.87   0
   5  -2  -1  226.47    5.63   0
  -5   2   1  202.67    5.50   0
  -5  -2   1  222.00    4.22   0
  -5  -2   1  207.48    4.48   0
  -5  -2   1  214.91    4.51   0
   5  -2  -1  223.92    3.92   0
  -4  -2   1  230.25    4.54   0
  -4   2   1  247.74    4.24   0
  -4   2   1  226.50    5.47   0
   4  -2  -1  250.60    5.68   0
  -4  -2   1  238.50    4.54   0
   4  -2  -1  259.87    4.31   0
  -3  -2   1 1193.70   10.18   0
  -3   2   1 1157.68    8.44   0
   3  -2  -1 1202.24    8.75   0
  -3   2   1 1100.06   11.25   0
   3  -2  -1 1143.47   11.40   0
  -2   2   1 1081.29    9.53   0
   2  -2  -1 1005.96   10.78   0
  -2   2   1  995.61   10.66   0
   2  -2  -1 1110.89    9.80   0
  -1   2   1   25.45    3.47   0
   1  -2  -1   25.60    2.69   0
   1  -2  -1   27.71    2.93   0
   1   2  -1   29.60    3.15   0
  -1  -2   1   27.64    3.84   0
  -1   2   1   25.22    2.96   0
   0  -2  -1 2293.51   15.99   0
   0  -2   1 2448.11   17.10   0
   0   2   1 2311.00   28.29   0
   0  -2   1 2312.32   16.82   0
   0   2   1 2273.92   16.12   0
   0  -2  -1 2409.83   28.95   0
   0   2  -1 2409.93   17.08   0
   1  -2   1  990.90    9.27   0
   1   2   1  959.79   10.52   0
  -1   2  -1  981.11   12.13   0
  -1   2  -1 1021.92    9.66   0
   1  -2   1  988.57   12.10   0
  -1  -2  -1 1020.61   10.82   0
   2  -2   1  250.52    4.39   0
   2   2   1  244.00    5.37   0
  -2  -2  -1  254.03    5.47   0
  -2   2  -1  247.49    7.09   0
  -2  -2  -1  264.97    7.07   0
   2  -2   1  254.38    7.11   0
  -2   2  -1  261.83    4.89   0
  -3  -2  -1  737.37    8.66   0
   3   2   1  729.77    8.76   0
  -3  -2  -1  789.15    8.79   0
   3  -2   1  772.62    6.76   0
  -3   2  -1  781.27    6.85   0
   3  -2   1  738.65   13.07   0
  -4  -2  -1  620.11    8.05   0
  -4  -2  -1  634.70    6.89   0
   4  -2   1  608.77    5.42   0
  -4   2  -1  628.85    5.79   0
  -5   2  -1   11.43    2.57   0
  -5  -2  -1    9.42    2.68   0
  -5  -2  -1   10.04    1.87   0
   5  -2   1   10.17    1.80   0
  -6  -2  -1  299.40    6.24   0
  -6  -2  -1  299.42    6.02   0
  -6   2  -1  315.43    4.17   0
  -6  -2  -1  295.43    4.50   0
   6  -2   1  308.07    4.11   0
  -7   2  -1   37.85    2.88   0
  -7  -2  -1   35.90    2.90   0
  -7  -2  -1   33.45    3.89   0
  -7  -2  -1   33.95    3.97   0
   7  -2   1   33.17    2.86   0
  -8  -2  -1    3.40    3.51   0
  -8  -2  -1    4.71    2.05   0
   8  -2   1    4.35    1.87   0
  -8   2  -1    2.97    2.72   0
  -8  -2  -1    2.94    3.99   0
  -9   2  -1  285.07    3.43   0
   9  -2   1  302.06    4.05   0
  -9  -2  -1  300.09    4.30   0
 -10  -2  -1    5.99    2.14   0
 -10   2  -1    6.52    3.01   0
 -11  -2  -1  198.18    4.08   0
 -11   2  -1  196.60    3.92   0
 -12   2  -1   32.74    3.48   0
 -12  -2  -1   36.37    2.61   0
 -13   3   1   20.80    2.48   0
 -13  -3   1   22.95    3.51   0
 -12   3   1   89.10    3.57   0
 -12  -3   1   90.92    7.35   0
 -12  -3   1   86.23    2.87   0
 -12  -3   1   84.48    6.73   0
 -11  -3   1  364.52    7.19   0
 -11  -3   1  363.96    4.62   0
 -11  -3   1  346.02    6.95   0
 -11   3   1  347.46    4.34   0
 -10  -3   1    0.22    3.49   0
 -10   3   1    2.11    2.11   0
 -10  -3   1   -0.09    2.81   0
 -10  -3   1    4.00    3.64   0
  -9  -3   1  150.63    4.10   0
  -9  -3   1  157.53    4.21   0
  -9   3   1  150.28    7.80   0
  -9   3   1  149.67    2.79   0
  -9  -3   1  154.62    3.73   0
  -8   3   1  108.01    4.85   0
  -8   3   1  108.55    3.17   0
   8  -3  -1  107.37    2.60   0
  -8  -3   1  109.65    3.27   0
   8  -3  -1  105.17    4.83   0
  -8  -3   1  107.56    3.65   0
  -8  -3   1  111.98    3.73   0
   7  -3  -1  800.15    9.40   0
   7  -3  -1  812.64    5.66   0
  -7  -3   1  784.41    7.28   0
  -7  -3   1  822.03    6.39   0
  -7  -3   1  780.57    7.29   0
  -7   3   1  792.83    9.49   0
  -7   3   1  815.19    5.67   0
   6  -3  -1  891.48    5.66   0
  -6   3   1  897.06    9.40   0
  -6  -3   1  887.44    7.64   0
  -6  -3   1  936.02    7.08   0
   6  -3  -1  933.09    9.43   0
  -6  -3   1  836.77    7.21   0
  -6   3   1  885.80    5.73   0
  -5   3   1  601.88    5.31   0
  -5  -3   1  585.72    6.31   0
  -5  -3   1  572.64    5.96   0
   5  -3  -1  602.89    5.04   0
  -5  -3   1  618.29    6.38   0
  -5   3   1  564.62    7.38   0
   5  -3  -1  589.80    7.55   0
   4  -3  -1 1770.66    9.09   0
  -4   3   1 1692.43    8.73   0
  -4   3   1 1710.27   12.27   0
  -4  -3   1 1705.09   10.51   0
   4  -3  -1 1676.42   12.12   0
   3  -3  -1  567.86    6.00   0
  -3   3   1  549.83    6.03   0
  -3  -3   1  519.74    6.05   0
  -3   3   1  516.65    6.81   0
   3  -3  -1  509.10    6.92   0
   2  -3  -1    3.47    2.68   0
  -2  -3   1    3.96    1.95   0
  -2   3   1    3.21    1.94   0
  -2  -3   1    4.38    3.25   0
  -2   3   1    2.72    1.99   0
   2  -3  -1    5.30    2.01   0
  -1  -3   1  167.77    4.47   0
   1  -3  -1  164.74    4.10   0
   1   3  -1  171.81    5.36   0
   1   3  -1  158.57    3.99   0
  -1   3   1  163.46    4.54   0
   1  -3  -1  173.02    5.09   0
  -1  -3   1  168.13    5.26   0
  -1   3   1  158.92    4.09   0
   0   3  -1 6593.31   23.34   0
   0   3   1 6689.35   22.81   0
   0  -3   1 7048.68   25.02   0
   0   3  -1 6880.47   24.83   0
   0  -3   1 6751.09   23.61   0
   0  -3  -1 6831.01   23.01   0
   1  -3   1 9999.99   26.22   0
   2   3   1  248.94    5.02   0
  -2   3  -1  251.23    4.15   0
  -2  -3  -1  259.70    7.94   0
   2  -3   1  257.79    5.73   0
  -2  -3  -1  248.78    4.99   0
   2  -3   1  242.61    4.05   0
  -2   3  -1  244.96    5.67   0
  -3   3  -1  521.78    8.15   0
   3  -3   1  525.84    8.15   0
  -3   3  -1  520.65    5.21   0
  -3  -3  -1  540.68    8.02   0
  -3  -3  -1  528.05    6.60   0
   3  -3   1  516.20    5.13   0
   3   3   1  513.09    6.55   0
  -4   3  -1  497.95    5.15   0
   4  -3   1  446.63    8.52   0
  -4   3  -1  478.61    8.75   0
   4   3   1  466.10    6.18   0
  -4  -3  -1  490.46    6.29   0
   4  -3   1  486.06    5.08   0
  -4  -3  -1  499.42    6.54   0
   5  -3   1   39.08    2.61   0
  -5  -3  -1   31.67    2.88   0
  -5   3  -1   30.84    2.66   0
  -5  -3  -1   33.24    2.84   0
   5  -3   1   33.64    4.42   0
  -6  -3  -1  184.41    4.41   0
   6  -3   1  182.46    3.01   0
  -6  -3  -1  186.63    3.96   0
  -6   3  -1  178.36    3.02   0
  -7   3  -1  470.57    4.63   0
  -7  -3  -1  459.47    6.84   0
  -7  -3  -1  462.53    5.30   0
   7  -3   1  446.06    4.12   0
  -7  -3  -1  457.76    6.72   0
  -8  -3  -1    9.52    2.82   0
  -8  -3  -1    7.92    2.85   0
  -8   3  -1    5.44    2.73   0
   8  -3   1    6.94    2.02   0
  -8  -3  -1    9.43    3.44   0
  -9  -3  -1  216.45    6.51   0
  -9   3  -1  213.54    3.66   0
   9  -3   1  203.50    3.65   0
  -9  -3  -1  203.01    6.39   0
  -9  -3  -1  205.51    3.88   0
 -10  -3  -1    2.25    5.27   0
  10  -3   1    0.95    2.96   0
 -10  -3  -1    2.68    5.93   0
 -10  -3  -1    1.44    2.13   0
 -10   3  -1    3.15    2.08   0
 -11  -3  -1    4.85    2.27   0
 -11   3  -1    6.02    3.11   0
 -12   3  -1  298.41    4.45   0
 -12  -3  -1  279.55    4.70   0
 -13  -4   1    3.92    2.41   0
 -13   4   1    5.45    3.33   0
 -12  -4   1   19.39    4.37   0
 -12  -4   1   23.24    3.37   0
 -12   4   1   19.74    2.43   0
 -12  -4   1   19.31    4.25   0
 -11  -4   1   14.78    3.18   0
 -11  -4   1   14.37    3.13   0
 -11   4   1   15.70    2.24   0
 -11  -4   1   15.83    3.23   0
 -10  -4   1  723.12    7.30   0
 -10  -4   1  750.59    7.51   0
 -10   4   1  692.98    4.73   0
 -10  -4   1  730.08    5.95   0
   9  -4  -1  165.77    3.53   0
  -9   4   1  168.13    3.59   0
  -9  -4   1  162.67    3.16   0
  -9   4   1  160.11    6.43   0
  -9  -4   1  158.66    3.98   0
   9  -4  -1  156.49    6.39   0
  -9  -4   1  163.88    4.09   0
  -8  -4   1   15.34    2.74   0
   8  -4  -1   15.07    3.39   0
  -8   4   1   16.17    3.43   0
   8  -4  -1   15.03    2.60   0
  -8  -4   1   15.94    2.74   0
  -8   4   1   14.43    1.94   0
  -8  -4   1   15.02    2.72   0
   7  -4  -1    2.36    3.00   0
  -7   4   1    2.16    2.49   0
   7  -4  -1    2.55    1.93   0
  -7  -4   1    2.18    2.61   0
  -7   4   1    5.09    2.70   0
  -7  -4   1    1.80    2.63   0
  -7  -4   1    3.01    2.59   0
   6  -4  -1  126.21    2.67   0
  -6  -4   1  119.45    3.53   0
  -6   4   1  125.69    3.23   0
   6  -4  -1  123.42    4.37   0
  -6  -4   1  120.46    3.52   0
  -6  -4   1  129.24    3.07   0
  -6   4   1  126.85    4.00   0
  -5  -4   1  118.46    3.46   0
  -5   4   1  119.28    2.64   0
   5  -4  -1  116.54    3.80   0
   5  -4  -1  121.28    2.65   0
  -5   4   1  119.52    3.77   0
   4  -4  -1   73.30    2.39   0
   4  -4  -1   68.96    3.15   0
  -4  -4   1   74.20    3.22   0
  -4   4   1   73.74    2.95   0
  -4   4   1   69.79    2.73   0
  -3   4   1  316.69    4.71   0
  -3  -4   1  307.72    4.49   0
   3  -4  -1  312.17    4.30   0
   3  -4  -1  299.39    5.04   0
  -3   4   1  312.88    5.19   0
  -3  -4   1  315.04    5.78   0
   2  -4  -1  649.53    6.52   0
  -2  -4   1  672.60    8.31   0
  -2  -4   1  654.54    6.56   0
   2   4  -1  630.59    7.99   0
   2  -4  -1  631.73    6.57   0
  -2   4   1  669.84    6.91   0
  -2   4   1  637.90    6.71   0
  -1  -4   1  531.21    5.87   0
  -1  -4   1  563.72    7.58   0
   1  -4  -1  566.66    7.37   0
  -1   4   1  550.75    6.39   0
   1  -4  -1  542.76    6.03   0
   1   4  -1  527.90    7.15   0
  -1   4   1  531.62    7.19   0
   1   4  -1  524.38    5.87   0
   0  -4   1 4132.27   16.29   0
   0  -4  -1 4177.81   15.99   0
   0   4  -1 4098.32   17.32   0
   0   4   1 3956.07   15.62   0
   0  -4   1 4127.81   17.46   0
   0   4  -1 3950.63   16.09   0
   0   4   1 4088.96   23.13   0
   0  -4  -1 4165.81   23.37   0
   1   4   1 2517.69   25.39   0
   1   4   1 2542.29   12.37   0
   1  -4   1 2645.96   12.59   0
  -1  -4  -1 2740.20   12.93   0
   1  -4   1 2717.67   13.68   0
  -1   4  -1 2573.41   13.38   0
  -1  -4  -1 2743.11   25.21   0
  -1   4  -1 2640.36   12.73   0
  -2  -4  -1  979.87   15.20   0
  -2  -4  -1 1005.23    7.81   0
   2  -4   1  987.33    8.86   0
  -2   4  -1  986.05    7.19   0
   2  -4   1 1005.12    7.22   0
   2   4   1  996.62    8.07   0
  -2   4  -1  969.88    8.63   0
   3   4   1   61.38    2.62   0
   3  -4   1   64.22    2.91   0
  -3   4  -1   64.58    2.93   0
   3  -4   1   64.64    3.24   0
  -3  -4  -1   64.07    3.71   0
  -3  -4  -1   61.16    2.55   0
  -3   4  -1   61.96    3.28   0
  -4   4  -1    2.83    2.48   0
  -4   4  -1    4.44    2.40   0
  -4  -4  -1    3.40    2.40   0
   4   4   1    4.14    2.42   0
   4  -4   1    3.16    2.52   0
   4  -4   1    4.09    2.36   0
  -4  -4  -1    5.71    2.49   0
   5  -4   1  255.24    6.09   0
  -5   4  -1  264.05    3.40   0
  -5  -4  -1  273.93    4.66   0
  -5  -4  -1  281.95    5.01   0
  -5   4  -1  263.65    5.90   0
   5  -4   1  274.83    3.79   0
  -6  -4  -1    1.40    1.81   0
   6  -4   1    2.51    1.77   0
  -6  -4  -1    1.71    2.52   0
  -6   4  -1    1.72    2.58   0
   6  -4   1    1.14    3.61   0
  -7   4  -1    7.86    2.65   0
  -7  -4  -1    5.36    2.59   0
  -7  -4  -1    5.95    2.61   0
  -7  -4  -1    5.01    2.61   0
   7  -4   1    3.84    1.89   0
  -8   4  -1    3.74    1.99   0
  -8  -4  -1    4.46    3.29   0
  -8  -4  -1    5.01    2.69   0
  -8  -4  -1    4.38    2.74   0
   8  -4   1    4.29    1.97   0
   9  -4   1    2.37    2.82   0
  -9  -4  -1    2.02    3.50   0
  -9  -4  -1    2.33    2.80   0
  -9  -4  -1    2.57    3.49   0
  -9   4  -1    1.69    2.01   0
 -10  -4  -1    1.43    3.51   0
 -10  -4  -1   -0.45    2.91   0
 -10  -4  -1    1.43    3.58   0
  10  -4   1    0.75    2.08   0
 -10   4  -1    1.79    2.95   0
 -11   4  -1    3.52    2.30   0
 -11  -4  -1    3.27    6.65   0
 -11  -4  -1    3.65    6.41   0
 -11  -4  -1    2.90    3.13   0
  11  -4   1    1.72    2.14   0
 -12  -4  -1    3.62    3.36   0
 -12   4  -1   -1.30    3.33   0
 -12  -5   1    4.68    3.92   0
 -12  -5   1    6.92    3.31   0
 -12  -5   1    4.51    4.10   0
 -12   5   1    5.36    2.39   0
 -11  -5   1    9.41    3.19   0
 -11  -5   1   10.44    3.14   0
 -11  -5   1   10.51    3.18   0
 -11   5   1   13.32    2.27   0
 -10  -5   1  136.87    4.00   0
 -10  -5   1  146.68    4.12   0
 -10   5   1  143.06    3.57   0
 -10  -5   1  147.36    3.83   0
   9  -5  -1  436.52    4.36   0
  -9  -5   1  409.78    5.34   0
  -9  -5   1  403.40    5.26   0
  -9  -5   1  424.37    4.93   0
  -9   5   1  408.49    7.71   0
  -9   5   1  404.53    3.79   0
   9  -5  -1  408.88    7.64   0
  -8  -5   1  252.81    4.40   0
  -8  -5   1  247.58    4.34   0
  -8   5   1  253.68    5.65   0
  -8  -5   1  251.31    3.74   0
  -8   5   1  255.81    3.78   0
   8  -5  -1  249.73    5.21   0
   8  -5  -1  250.54    3.19   0
   7  -5  -1  871.08    8.57   0
  -7  -5   1  834.21    6.74   0
  -7  -5   1  814.61    6.30   0
  -7   5   1  834.13    8.11   0
  -7  -5   1  868.61    6.96   0
   7  -5  -1  840.31    5.26   0
  -7   5   1  850.61    5.57   0
   6  -5  -1 1435.74    6.85   0
   6  -5  -1 1409.52    9.94   0
  -6  -5   1 1370.31    7.94   0
  -6  -5   1 1466.78    9.14   0
  -6   5   1 1390.30    6.71   0
  -6   5   1 1408.37    9.78   0
  -6  -5   1 1436.01    8.40   0
   5  -5  -1  171.62    2.92   0
   5  -5  -1  166.29    4.00   0
  -5   5   1  168.53    3.59   0
  -5   5   1  176.62    3.39   0
  -5  -5   1  175.19    3.76   0
  -4  -5   1  187.79    3.93   0
  -4   5   1  187.45    3.18   0
   4  -5  -1  180.56    3.55   0
   4  -5  -1  192.70    3.22   0
  -4  -5   1  190.11    4.42   0
  -4   5   1  189.06    4.01   0
  -3  -5   1  374.61    5.63   0
   3  -5  -1  384.81    5.15   0
  -3   5   1  376.74    4.51   0
   3  -5  -1  398.04    4.93   0
  -3  -5   1  395.78    4.97   0
  -3   5   1  377.05    4.86   0
   2  -5  -1  484.91    5.65   0
  -2  -5   1  469.77    5.36   0
   2  -5  -1  475.84    5.44   0
  -2   5   1  467.19    5.64   0
  -2   5   1  465.12    5.62   0
   2   5  -1  451.82    4.99   0
   2   5  -1  472.22    6.86   0
  -2  -5   1  497.63    6.78   0
   1   5  -1  462.76    5.35   0
  -1   5   1  447.24    5.87   0
  -1  -5   1  469.36    5.34   0
  -1  -5   1  481.50    6.19   0
   1  -5  -1  465.62    5.20   0
   1   5  -1  474.55    6.57   0
   1  -5  -1  482.28    6.35   0
  -1   5   1  465.99    5.57   0
   0  -5   1   16.16    2.66   0
   0   5   1   15.10    1.97   0
   0  -5  -1   17.21    2.85   0
   0   5   1   17.23    2.87   0
   0  -5   1   16.73    2.82   0
   0  -5  -1   16.97    2.63   0
   0   5  -1   16.41    2.74   0
   0   5  -1   16.65    2.99   0
   1   5   1   89.60    3.30   0
  -1  -5  -1   94.31    2.84   0
  -1   5  -1   92.67    3.51   0
  -1  -5  -1   96.43    4.86   0
   1  -5   1   94.53    2.89   0
   1  -5   1   98.76    3.42   0
   1   5   1   96.15    5.08   0
  -1   5  -1   95.23    2.93   0
   2  -5   1  446.83    5.13   0
  -2   5  -1  421.24    5.59   0
  -2   5  -1  423.23    4.70   0
  -2  -5  -1  422.96    4.87   0
   2   5   1  405.89    4.81   0
  -2  -5  -1  453.45    9.73   0
   2  -5   1  423.62    5.24   0
  -3   5  -1   51.35    2.82   0
   3  -5   1   51.19    2.87   0
  -3   5  -1   50.09    2.93   0
   3   5   1   46.13    2.35   0
   3  -5   1   53.57    2.78   0
  -3  -5  -1   53.60    2.96   0
  -3  -5  -1   50.00    3.61   0
  -3  -5  -1   48.66    4.12   0
   4  -5   1  178.90    2.96   0
  -4  -5  -1  178.87    4.82   0
  -4   5  -1  175.79    3.43   0
  -4   5  -1  168.45    4.20   0
  -4  -5  -1  176.29    3.80   0
   4  -5   1  171.48    4.24   0
   4   5   1  173.35    3.76   0
  -5   5  -1    1.21    2.49   0
  -5  -5  -1    0.80    2.48   0
   5   5   1    1.42    2.46   0
  -5  -5  -1    0.11    2.42   0
  -5   5  -1    0.56    2.45   0
   5  -5   1   -0.16    1.72   0
   5  -5   1    1.52    2.92   0
  -6  -5  -1  314.71    5.00   0
   6  -5   1  316.69    4.03   0
   6  -5   1  294.85    6.26   0
  -6   5  -1  305.77    3.52   0
  -6  -5  -1  305.19    4.72   0
  -7  -5  -1  126.39    3.67   0
   7  -5   1  123.92    5.45   0
  -7   5  -1  127.90    2.67   0
  -7  -5  -1  127.92    3.74   0
   7  -5   1  130.57    3.08   0
  -8  -5  -1  250.24    4.39   0
  -8   5  -1  240.47    3.21   0
   8  -5   1  240.89    3.74   0
  -8  -5  -1  239.13    4.56   0
  -8  -5  -1  241.18    4.58   0
  -9   5  -1  216.75    3.18   0
   9  -5   1  214.51    3.13   0
  -9  -5  -1  217.79    3.63   0
  -9  -5  -1  217.03    4.66   0
  -9  -5  -1  220.13    4.72   0
 -10   5  -1   52.03    2.39   0
 -10  -5  -1   51.55    3.33   0
 -10  -5  -1   49.49    3.58   0
  10  -5   1   56.49    3.26   0
 -10  -5  -1   53.16    3.63   0
  11  -5   1   11.47    3.17   0
 -11  -5  -1   11.73    4.23   0
 -11   5  -1   13.24    3.23   0
 -11  -5  -1   11.47    4.72   0
 -11  -5  -1    9.03    3.29   0
 -12   5  -1   10.70    2.44   0
 -12  -5  -1   10.48    3.42   0
 -12  -6   1   40.41    3.57   0
 -12  -6   1   37.65    3.79   0
 -12  -6   1   41.19    3.68   0
 -12   6   1   38.38    3.48   0
 -11  -6   1   77.11    3.81   0
 -11  -6   1   77.93    2.86   0
 -11  -6   1   79.51    3.85   0
 -11   6   1   74.50    2.68   0
  10  -6  -1  589.22    4.38   0
  10  -6  -1  582.78   10.95   0
 -10  -6   1  600.80    5.75   0
 -10   6   1  602.45    4.96   0
 -10  -6   1  591.60    6.25   0
 -10   6   1  575.35   10.67   0
 -10  -6   1  584.14    6.18   0
  -9   6   1  192.18    2.91   0
  -9  -6   1  194.60    4.04   0
   9  -6  -1  204.88    5.46   0
  -9  -6   1  198.07    3.46   0
  -9  -6   1  193.59    4.10   0
   9  -6  -1  200.81    2.99   0
  -9   6   1  198.22    5.46   0
  -8  -6   1  146.70    3.81   0
  -8  -6   1  140.08    3.66   0
  -8  -6   1  133.58    3.11   0
  -8   6   1  137.74    4.11   0
   8  -6  -1  139.34    4.11   0
   8  -6  -1  140.92    3.28   0
  -8   6   1  134.66    2.68   0
   7  -6  -1 1440.56    6.80   0
  -7   6   1 1342.17    9.48   0
   7  -6  -1 1350.23    9.57   0
  -7  -6   1 1382.89    8.57   0
  -7   6   1 1371.18    6.74   0
  -7  -6   1 1286.73    7.38   0
  -7  -6   1 1317.76    7.43   0
  -6   6   1 1202.62    8.52   0
   6  -6  -1 1254.81    6.57   0
  -6   6   1 1168.44    6.15   0
   6  -6  -1 1142.75    8.33   0
  -6  -6   1 1219.23    7.41   0
  -5   6   1 1528.32    7.50   0
  -5  -6   1 1479.64    7.90   0
  -5   6   1 1428.07    8.73   0
   5  -6  -1 1390.78    8.58   0
  -5  -6   1 1413.11    9.45   0
   5  -6  -1 1569.09    7.55   0
   4  -6  -1  870.36    5.87   0
  -4  -6   1  856.18    6.45   0
  -4   6   1  844.54    6.90   0
   4  -6  -1  841.36    6.82   0
  -4   6   1  876.52    6.13   0
  -4  -6   1  825.75    7.62   0
   3  -6  -1  262.71    4.24   0
  -3  -6   1  253.62    3.63   0
  -3  -6   1  261.88    4.60   0
   3  -6  -1  271.47    4.15   0
  -3   6   1  258.31    4.28   0
  -3   6   1  255.27    4.10   0
  -2  -6   1  235.78    3.53   0
  -2   6   1  236.32    3.74   0
   2  -6  -1  249.98    4.35   0
   2   6  -1  224.94    4.41   0
  -2  -6   1  257.58    4.91   0
   2  -6  -1  244.67    4.17   0
   2   6  -1  236.54    3.94   0
  -2   6   1  236.27    3.84   0
  -1   6   1    2.34    1.84   0
   1  -6  -1    1.82    1.73   0
  -1  -6   1    3.20    1.76   0
   1  -6  -1    1.69    2.54   0
  -1  -6   1    2.84    2.55   0
  -1   6   1    2.10    2.50   0
   1   6  -1    2.15    2.65   0
   1   6  -1    4.61    2.57   0
   0  -6  -1  170.55    4.44   0
   0  -6   1  163.64    3.20   0
   0   6  -1  157.96    3.24   0
   0   6   1  156.90    3.13   0
   0  -6  -1  164.63    3.15   0
   0   6   1  164.25    4.38   0
   0   6  -1  180.07    4.09   0
   0  -6   1  183.85    4.10   0
   1   6   1 1139.90   11.78   0
  -1   6  -1 1168.18    7.86   0
   1  -6   1 1197.98    7.75   0
  -1  -6  -1 1211.87   11.88   0
  -1  -6  -1 1213.87    7.49   0
   1   6   1 1143.39    7.23   0
  -1   6  -1 1227.03    8.04   0
   1  -6   1 1158.13    7.54   0
   2   6   1  481.37    5.19   0
  -2  -6  -1  496.25    5.15   0
  -2   6  -1  492.53    4.85   0
  -2  -6  -1  509.85    9.12   0
   2  -6   1  499.75    5.49   0
  -2   6  -1  493.68    5.53   0
   2  -6   1  503.50    5.15   0
  -3   6  -1  308.88    4.76   0
  -3   6  -1  299.56    3.69   0
   3  -6   1  310.74    4.72   0
  -3  -6  -1  304.71    4.02   0
  -3  -6  -1  320.90    7.44   0
   3  -6   1  300.20    3.70   0
   3   6   1  297.30    4.36   0
   4  -6   1 1123.44    8.41   0
  -4   6  -1 1123.60    6.29   0
  -4  -6  -1 1182.86   11.34   0
   4   6   1 1071.62    6.94   0
  -4  -6  -1 1114.67   11.32   0
  -4  -6  -1 1127.16    7.10   0
  -4   6  -1 1053.71    7.90   0
   4  -6   1 1136.90    6.57   0
   5   6   1 1079.95    6.95   0
  -5   6  -1 1170.41    6.48   0
  -5   6  -1 1135.28    8.89   0
  -5  -6  -1 1146.98    7.15   0
  -5  -6  -1 1196.69   10.07   0
   5  -6   1 1147.16    6.08   0
   5  -6   1 1090.72    8.59   0
   6  -6   1  956.43    5.74   0
  -6  -6  -1  927.64    6.97   0
  -6  -6  -1  943.97    8.30   0
  -6   6  -1  937.38    5.78   0
   6  -6   1  839.03    8.25   0
  -6   6  -1  896.87    8.52   0
   7  -6   1   48.53    3.96   0
   7  -6   1   46.88    2.92   0
  -7   6  -1   45.73    2.28   0
  -7  -6  -1   44.22    3.01   0
  -7  -6  -1   45.71    3.02   0
   8  -6   1  452.12   10.23   0
  -8  -6  -1  445.22    5.45   0
   8  -6   1  407.50    9.98   0
  -8   6  -1  433.23    3.92   0
  -8  -6  -1  449.39    5.57   0
  -8  -6  -1  405.35    4.81   0
   8  -6   1  434.32    3.88   0
  -9  -6  -1  159.71    4.16   0
  -9   6  -1  158.91    2.91   0
   9  -6   1  156.20    3.53   0
  -9  -6  -1  163.11    4.16   0
  -9  -6  -1  159.17    4.16   0
 -10  -6  -1  283.96    5.26   0
  10  -6   1  286.17    3.39   0
 -10  -6  -1  292.82    5.32   0
 -10   6  -1  298.34    4.16   0
 -10  -6  -1  296.09    4.78   0
 -11  -6  -1  237.17    6.00   0
 -11  -6  -1  214.51    3.98   0
  11  -6   1  248.85    3.98   0
 -11   6  -1  213.77    3.35   0
 -11  -6  -1  241.24    6.03   0
 -12  -6  -1   40.18    4.88   0
 -12   6  -1   38.73    2.66   0
 -12  -6  -1   42.06    5.46   0
 -12  -6  -1   43.27    3.67   0
 -12  -7   1   89.73    4.04   0
 -12  -7   1   87.72    3.90   0
 -12   7   1   85.66    3.72   0
 -12  -7   1   82.77    4.12   0
 -11  -7   1   16.82    3.34   0
 -11  -7   1   18.58    3.26   0
 -11   7   1   17.47    2.28   0
 -11  -7   1   15.52    3.25   0
  10  -7  -1  126.95    5.70   0
 -10  -7   1  115.83    3.06   0
  10  -7  -1  126.51    2.74   0
 -10   7   1  121.70    5.22   0
 -10  -7   1  132.65    3.87   0
 -10  -7   1  120.83    3.12   0
 -10   7   1  129.56    3.49   0
  -9   7   1   30.42    3.19   0
  -9  -7   1   30.66    3.04   0
  -9  -7   1   30.05    2.33   0
  -9   7   1   28.07    3.00   0
  -9  -7   1   28.48    2.22   0
   9  -7  -1   28.31    3.25   0
   9  -7  -1   31.36    2.11   0
   8  -7  -1  287.84    3.23   0
  -8   7   1  276.44    3.23   0
   8  -7  -1  279.61    5.05   0
  -8  -7   1  292.29    4.68   0
  -8   7   1  280.79    5.01   0
  -8  -7   1  274.01    4.27   0
  -8  -7   1  278.36    4.26   0
  -7  -7   1   92.30    3.64   0
   7  -7  -1   91.59    3.08   0
  -7  -7   1   92.71    2.91   0
   7  -7  -1   88.43    3.47   0
  -7  -7   1   87.90    3.16   0
  -7   7   1   90.65    3.47   0
  -7   7   1   91.88    3.15   0
  -6   7   1  354.97    4.94   0
  -6  -7   1  353.89    5.26   0
   6  -7  -1  375.26    4.21   0
  -6  -7   1  354.39    4.42   0
  -6   7   1  343.66    4.03   0
   6  -7  -1  335.73    4.83   0
   5  -7  -1   14.37    1.86   0
  -5   7   1   12.68    1.96   0
  -5   7   1   13.18    1.93   0
  -5  -7   1   13.81    2.72   0
   5  -7  -1   13.58    2.64   0
  -5  -7   1   13.10    1.83   0
   4  -7  -1   16.85    1.97   0
  -4   7   1   19.37    2.65   0
   4  -7  -1   17.57    1.87   0
  -4  -7   1   16.31    2.63   0
  -4   7   1   18.03    1.94   0
  -4  -7   1   18.85    2.89   0
   3   7  -1  176.92    3.54   0
  -3  -7   1  180.36    3.51   0
  -3  -7   1  195.17    4.39   0
   3  -7  -1  194.06    3.77   0
  -3   7   1  175.75    3.17   0
  -3   7   1  187.31    3.76   0
   3  -7  -1  181.91    3.23   0
   2  -7  -1  526.16    5.50   0
  -2   7   1  505.23    5.16   0
   2   7  -1  488.09    6.17   0
  -2   7   1  495.78    5.38   0
   2   7  -1  472.53    4.49   0
  -2  -7   1  488.31    4.51   0
  -2  -7   1  508.84    5.81   0
   2  -7  -1  508.07    5.15   0
   1  -7  -1 1649.28    8.33   0
  -1   7   1 1600.42    9.60   0
   1   7  -1 1554.54    8.08   0
   1   7  -1 1625.96   10.02   0
  -1  -7   1 1563.45    7.86   0
  -1  -7   1 1654.45    9.85   0
   1  -7  -1 1601.22    9.48   0
  -1   7   1 1544.74    8.15   0
   0  -7  -1    0.74    1.65   0
   0   7  -1    3.17    1.82   0
   0  -7  -1    0.44    2.36   0
   0   7  -1    0.75    1.86   0
   0  -7   1    2.82    2.57   0
   0   7   1    2.18    2.37   0
   0  -7   1    1.97    2.46   0
   0   7   1    1.26    1.67   0
  -1  -7  -1  726.41    5.50   0
   1   7   1  710.25    8.61   0
  -1  -7  -1  748.02    8.64   0
   1   7   1  699.82    5.43   0
  -1   7  -1  734.81    6.02   0
  -1   7  -1  742.14    6.00   0
   1  -7   1  720.38    5.65   0
   1  -7   1  748.71    6.37   0
  -2  -7  -1 1196.57   12.01   0
   2  -7   1 1148.24    7.21   0
  -2   7  -1 1167.16    6.94   0
   2   7   1 1113.10    6.62   0
   2  -7   1 1161.45    6.88   0
  -2   7  -1 1137.21    7.23   0
  -2  -7  -1 1235.26    7.19   0
  -3  -7  -1    1.01    1.80   0
   3  -7   1    1.19    1.75   0
  -3   7  -1    1.18    1.81   0
   3   7   1    1.19    1.83   0
  -3  -7  -1    0.34    3.21   0
  -3   7  -1    1.29    1.67   0
   3  -7   1   -0.09    2.48   0
  -4  -7  -1   48.75    4.05   0
  -4   7  -1   45.37    2.20   0
  -4  -7  -1   49.51    3.94   0
  -4   7  -1   43.52    2.95   0
   4  -7   1   44.44    2.84   0
  -4  -7  -1   44.64    2.14   0
   4  -7   1   45.52    2.21   0
   4   7   1   42.11    2.17   0
   5  -7   1   41.84    2.70   0
  -5  -7  -1   43.74    3.20   0
  -5   7  -1   43.67    3.00   0
   5  -7   1   41.72    2.27   0
  -5   7  -1   39.13    2.03   0
  -5  -7  -1   41.30    3.30   0
  -5  -7  -1   44.39    2.86   0
   5   7   1   38.98    2.90   0
  -6  -7  -1  409.87    6.35   0
   6  -7   1  425.74    3.81   0
  -6   7  -1  435.25    4.35   0
  -6  -7  -1  423.22    6.16   0
  -6   7  -1  419.43    5.70   0
   6  -7   1  391.88    5.52   0
  -6  -7  -1  416.57    4.85   0
  -7  -7  -1  586.29    5.69   0
  -7  -7  -1  577.62    6.60   0
   7  -7   1  584.27    4.74   0
   7  -7   1  543.30    7.15   0
  -7   7  -1  564.81    4.30   0
   8  -7   1  621.18    4.43   0
   8  -7   1  628.51    8.82   0
  -8  -7  -1  642.07    6.00   0
  -8   7  -1  608.75    4.40   0
  -8  -7  -1  648.94    6.79   0
   9  -7   1   69.60    3.22   0
  -9   7  -1   69.28    3.32   0
  -9  -7  -1   64.88    3.55   0
  -9  -7  -1   64.93    3.44   0
  -9  -7  -1   68.41    3.50   0
 -10   7  -1  353.29    4.44   0
 -10  -7  -1  340.04    5.44   0
 -10  -7  -1  350.89    5.35   0
  10  -7   1  349.62    3.76   0
 -10  -7  -1  341.68    5.40   0
 -11  -7  -1  209.81    5.08   0
  11  -7   1  231.49    4.07   0
 -11  -7  -1  228.89    4.76   0
 -11  -7  -1  216.72    5.14   0
 -11   7  -1  228.06    4.07   0
 -12   8   1    6.01    3.44   0
 -12  -8   1    3.14    3.40   0
 -12  -8   1    3.85    3.44   0
 -12  -8   1    3.95    3.64   0
 -12  -8   1    5.79    3.43   0
 -11  -8   1  367.53    5.23   0
 -11   8   1  342.75    3.83   0
  11  -8  -1  349.92   10.06   0
 -11  -8   1  347.32    5.38   0
  11  -8  -1  342.37    3.76   0
 -11  -8   1  354.11    5.37   0
 -11  -8   1  374.89    5.29   0
 -10  -8   1  253.31    4.50   0
  10  -8  -1  250.43    3.28   0
 -10   8   1  250.66    6.04   0
 -10  -8   1  253.24    4.06   0
 -10  -8   1  253.34    4.73   0
 -10   8   1  244.78    3.28   0
 -10  -8   1  244.41    3.81   0
  10  -8  -1  247.72    5.53   0
   9  -8  -1   79.26    3.75   0
  -9  -8   1   81.36    3.63   0
  -9   8   1   76.32    2.51   0
  -9  -8   1   80.29    3.73   0
  -9  -8   1   77.55    3.41   0
   9  -8  -1   76.38    2.51   0
  -9  -8   1   80.50    3.33   0
  -9   8   1   76.50    3.74   0
  -8  -8   1  366.79    5.16   0
  -8   8   1  343.66    5.23   0
  -8  -8   1  354.55    5.25   0
  -8  -8   1  335.13    4.03   0
   8  -8  -1  341.17    5.23   0
  -8   8   1  361.27    4.22   0
   8  -8  -1  377.46    4.15   0
  -8  -8   1  359.51    4.65   0
  -7  -8   1 1195.75    8.48   0
  -7  -8   1 1144.09    8.50   0
  -7  -8   1 1165.86    6.87   0
   7  -8  -1 1106.10    7.96   0
  -7   8   1 1139.30    5.83   0
   7  -8  -1 1223.49    6.33   0
  -7   8   1 1143.59    8.07   0
   6  -8  -1  174.62    3.37   0
  -6   8   1  176.98    3.44   0
  -6  -8   1  167.44    3.61   0
  -6   8   1  169.03    3.81   0
  -6  -8   1  174.99    3.54   0
   6  -8  -1  164.61    3.73   0
  -5  -8   1   57.99    3.26   0
  -5   8   1   59.15    2.95   0
  -5  -8   1   56.01    2.88   0
  -5   8   1   53.34    2.38   0
   5  -8  -1   55.87    2.89   0
   5  -8  -1   54.27    2.99   0
  -4   8   1  781.25    6.05   0
  -4   8   1  770.99    5.39   0
   4  -8  -1  754.72    5.96   0
  -4  -8   1  771.67    5.40   0
  -4  -8   1  829.46    7.64   0
   4  -8  -1  830.71    5.92   0
   3   8  -1   72.41    2.34   0
   3  -8  -1   72.25    2.36   0
  -3  -8   1   72.63    2.27   0
  -3   8   1   78.60    3.03   0
   3  -8  -1   76.99    2.45   0
  -3   8   1   73.36    2.40   0
  -3  -8   1   84.29    3.44   0
  -2   8   1   35.65    2.13   0
   2   8  -1   32.31    1.96   0
   2   8  -1   32.97    3.00   0
  -2  -8   1   31.83    1.92   0
  -2   8   1   34.29    2.78   0
  -2  -8   1   34.35    2.90   0
   2  -8  -1   34.63    2.77   0
   2  -8  -1   36.50    2.70   0
   1  -8  -1  325.27    4.11   0
   1  -8  -1  316.27    4.72   0
   1   8  -1  313.65    4.08   0
  -1   8   1  297.66    3.66   0
   1   8  -1  322.06    4.84   0
  -1  -8   1  323.84    4.74   0
  -1   8   1  315.25    4.70   0
  -1  -8   1  325.19    4.05   0
   0  -8   1    4.98    1.69   0
   0   8   1    3.78    1.71   0
   0  -8  -1    5.20    2.46   0
   0   8  -1    6.53    2.45   0
   0  -8   1    6.54    1.88   0
   0  -8  -1    5.32    1.74   0
   0   8   1    5.00    2.55   0
   0   8  -1    5.98    2.64   0
  -1   8  -1 2396.85    9.99   0
   1  -8   1 2433.16   10.10   0
  -1   8  -1 2435.68    9.93   0
   1   8   1 2450.77   14.50   0
  -1  -8  -1 2504.36    9.47   0
   1  -8   1 2423.57    9.53   0
  -1  -8  -1 2512.00   14.26   0
   1   8   1 2332.64    9.08   0
   2   8   1  199.55    3.11   0
  -2  -8  -1  209.04    3.63   0
  -2   8  -1  200.19    3.78   0
   2  -8   1  202.02    3.72   0
   2  -8   1  195.14    3.21   0
   2   8   1  194.50    5.33   0
  -2  -8  -1  210.33    5.50   0
  -2   8  -1  209.04    3.75   0
   3  -8   1  457.10    4.91   0
  -3   8  -1  432.22    4.16   0
  -3  -8  -1  456.93    7.91   0
   3  -8   1  441.71    4.59   0
  -3  -8  -1  428.10    4.21   0
  -3   8  -1  423.10    4.47   0
   3   8   1  416.87    4.21   0
   4   8   1 1931.56    8.58   0
  -4  -8  -1 2136.35   16.11   0
  -4   8  -1 2030.23    8.25   0
  -4  -8  -1 2022.77    8.40   0
  -4   8  -1 1915.29    9.31   0
   4  -8   1 1980.41    7.97   0
   4  -8   1 1998.15    9.80   0
   5  -8   1 1395.63    8.50   0
  -5   8  -1 1463.70    6.92   0
   5  -8   1 1440.01    6.88   0
  -5  -8  -1 1470.25   12.82   0
  -5  -8  -1 1419.67   12.10   0
  -5   8  -1 1330.06    8.01   0
   5   8   1 1310.99    7.01   0
  -5  -8  -1 1460.42    7.55   0
  -6   8  -1  187.57    2.99   0
  -6  -8  -1  203.04    5.31   0
  -6  -8  -1  195.76    3.25   0
  -6   8  -1  186.69    4.11   0
  -6  -8  -1  188.52    4.96   0
   6  -8   1  196.91    3.45   0
   6  -8   1  187.10    4.10   0
  -7  -8  -1   10.51    2.00   0
  -7  -8  -1   11.16    2.92   0
   7  -8   1   13.17    2.91   0
   7  -8   1   11.64    1.87   0
  -7  -8  -1   10.60    3.03   0
  -7   8  -1   12.99    2.89   0
  -8  -8  -1  500.77    6.84   0
  -8   8  -1  509.15    4.59   0
  -8  -8  -1  494.88    5.33   0
   8  -8   1  476.59    7.23   0
   8  -8   1  503.90    4.60   0
  -8  -8  -1  474.38    6.45   0
  -9   8  -1  110.54    3.38   0
   9  -8   1   94.72    5.21   0
  -9  -8  -1  110.78    3.95   0
  -9  -8  -1  100.83    3.63   0
   9  -8   1  105.88    5.87   0
  -9  -8  -1  100.93    2.93   0
   9  -8   1  106.57    2.52   0
  -9  -8  -1   98.24    4.02   0
 -10   8  -1  114.71    2.92   0
 -10  -8  -1  119.50    4.12   0
  10  -8   1  123.72    3.57   0
 -10  -8  -1  110.89    3.94   0
 -10  -8  -1  120.09    4.01   0
 -11  -8  -1   66.28    4.69   0
 -11   8  -1   76.13    2.85   0
  11  -8   1   84.44    3.58   0
 -11  -8  -1   75.62    3.91   0
 -11  -8  -1   73.87    3.95   0
 -11  -9   1   68.40    3.75   0
 -11  -9   1   67.15    3.87   0
 -11  -9   1   58.19    2.87   0
 -11   9   1   60.58    2.71   0
  11  -9  -1   66.04    2.57   0
 -11  -9   1   68.90    3.63   0
  11  -9  -1   62.10    4.95   0
 -10  -9   1  160.54    4.48   0
  10  -9  -1  177.76    3.68   0
 -10   9   1  172.50    3.05   0
 -10   9   1  160.35    4.59   0
 -10  -9   1  168.66    4.02   0
 -10  -9   1  170.02    4.38   0
  10  -9  -1  170.41    5.20   0
 -10  -9   1  159.70    3.37   0
   9  -9  -1  578.12    6.71   0
   9  -9  -1  638.79    4.98   0
  -9  -9   1  579.28    5.48   0
  -9  -9   1  610.56    6.41   0
  -9   9   1  579.18    7.00   0
  -9   9   1  593.17    4.97   0
  -9  -9   1  589.16    6.53   0
  -9  -9   1  568.66    4.97   0
   8  -9  -1   15.55    2.14   0
  -8   9   1   16.87    3.18   0
  -8   9   1   17.18    2.16   0
  -8  -9   1   18.87    2.96   0
   8  -9  -1   17.34    3.05   0
  -8  -9   1   16.11    2.97   0
  -8  -9   1   18.59    3.09   0
  -8  -9   1   17.58    3.13   0
   7  -9  -1   26.02    2.08   0
  -7  -9   1   26.27    3.10   0
  -7   9   1   24.64    2.18   0
  -7  -9   1   23.03    3.78   0
  -7   9   1   23.84    3.03   0
  -7  -9   1   24.92    2.83   0
   7  -9  -1   23.92    2.99   0
   6  -9  -1   24.26    2.82   0
  -6   9   1   25.60    2.87   0
  -6  -9   1   26.22    3.19   0
  -6  -9   1   21.09    2.08   0
   6  -9  -1   25.43    2.04   0
  -6   9   1   22.74    2.89   0
  -5  -9   1   21.32    2.95   0
  -5  -9   1   17.45    1.93   0
  -5   9   1   18.12    1.94   0
   5  -9  -1   17.40    1.96   0
  -5   9   1   20.12    2.77   0
   5  -9  -1   18.87    2.68   0
   4  -9  -1  521.11    4.99   0
  -4  -9   1  518.82    4.85   0
  -4   9   1  497.48    4.96   0
  -4  -9   1  537.16    6.26   0
   4  -9  -1  488.65    4.51   0
  -4   9   1  491.76    4.33   0
  -3   9   1  867.71    6.05   0
  -3  -9   1  924.42    7.84   0
  -3  -9   1  878.07    5.76   0
   3   9  -1  857.87    7.97   0
   3   9  -1  820.06    5.34   0
   3  -9  -1  896.88    5.91   0
   3  -9  -1  893.31    6.06   0
  -3   9   1  852.32    5.75   0
   2   9  -1  471.19    4.26   0
   2  -9  -1  515.02    4.90   0
  -2   9   1  488.93    4.48   0
  -2   9   1  483.42    4.72   0
  -2  -9   1  519.48    4.74   0
   2   9  -1  475.85    5.40   0
  -2  -9   1  529.39    5.86   0
   2  -9  -1  526.63    5.25   0
  -1  -9   1  971.85    7.26   0
  -1  -9   1  922.00    5.60   0
  -1   9   1  952.52    7.18   0
   1   9  -1  895.51    5.62   0
   1  -9  -1  936.17    5.76   0
   1   9  -1  872.10    6.83   0
   1  -9  -1  960.19    7.20   0
  -1   9   1  930.77    6.09   0
   0  -9   1 1272.69    7.75   0
   0  -9  -1 1243.85    8.77   0
   0  -9  -1 1258.16    6.72   0
   0   9  -1 1179.46    6.77   0
   0   9   1 1189.29    6.66   0
   0   9  -1 1215.18    7.45   0
   0   9   1 1221.68    8.77   0
   0  -9   1 1189.84    6.43   0
   1  -9   1 1233.73    7.29   0
   1   9   1 1171.18    9.47   0
  -1  -9  -1 1185.92    9.31   0
   1  -9   1 1160.09    6.51   0
   1   9   1 1150.86    6.56   0
  -1   9  -1 1241.04    7.36   0
  -1   9  -1 1134.68    6.51   0
  -1  -9  -1 1204.72    6.64   0
  -2   9  -1  351.68    3.89   0
   2   9   1  348.78    6.32   0
   2  -9   1  361.43    4.27   0
  -2  -9  -1  376.45    4.27   0
  -2  -9  -1  360.22    6.05   0
  -2   9  -1  351.54    4.31   0
   2   9   1  346.53    4.20   0
   2  -9   1  356.01    3.89   0
  -3   9  -1  162.32    3.00   0
  -3   9  -1  179.27    3.50   0
  -3  -9  -1  168.58    2.89   0
   3   9   1  155.44    2.89   0
   3  -9   1  170.92    3.52   0
   3  -9   1  166.45    2.94   0
  -3  -9  -1  171.64    5.20   0
   4   9   1    2.65    1.86   0
   4  -9   1    0.73    2.60   0
  -4   9  -1    3.98    1.91   0
   4  -9   1    1.49    1.80   0
  -4  -9  -1    2.08    1.85   0
  -4  -9  -1    2.13    3.23   0
  -4   9  -1    1.37    2.65   0
  -5   9  -1  220.02    3.09   0
  -5  -9  -1  235.33    6.07   0
  -5  -9  -1  239.35    6.17   0
   5   9   1  211.54    3.28   0
   5  -9   1  232.39    3.67   0
   5  -9   1  220.59    4.01   0
  -5  -9  -1  237.00    3.90   0
  -5   9  -1  222.50    4.07   0
  -6  -9  -1   48.90    3.00   0
   6  -9   1   49.64    2.26   0
  -6  -9  -1   52.01    4.10   0
  -6  -9  -1   50.14    4.04   0
   6  -9   1   48.29    3.04   0
  -6   9  -1   50.47    3.10   0
  -6   9  -1   46.80    3.07   0
  -7   9  -1  179.23    3.53   0
  -7  -9  -1  184.35    5.45   0
   7  -9   1  182.76    2.85   0
  -7  -9  -1  192.54    5.37   0
  -7  -9  -1  183.53    3.75   0
   7  -9   1  164.90    4.13   0
   8  -9   1  362.92    3.60   0
  -8  -9  -1  347.15    4.18   0
  -8   9  -1  362.83    4.24   0
  -8  -9  -1  336.43    5.92   0
   8  -9   1  336.22    5.51   0
  -8  -9  -1  364.99    6.42   0
  -9  -9  -1  187.60    5.25   0
  -9   9  -1  187.68    3.76   0
  -9  -9  -1  180.37    5.36   0
  -9  -9  -1  175.14    4.08   0
  -9  -9  -1  184.28    3.50   0
   9  -9   1  200.61    3.74   0
   9  -9   1  174.63    5.05   0
  10  -9   1   85.56    2.68   0
 -10  -9  -1   85.04    4.00   0
 -10  -9  -1   83.25    4.08   0
 -10   9  -1   81.41    2.70   0
 -10  -9  -1   84.03    3.80   0
 -10  -9  -1   69.73    2.97   0
 -11  -9  -1  146.74    4.39   0
 -11  -9  -1  156.31    5.04   0
 -11  -9  -1  155.28    4.94   0
 -11   9  -1  149.21    3.17   0
 -11  -9  -1  159.31    4.44   0
  11  -9   1  143.25    3.16   0
 -11  10   1  276.00    3.64   0
  11 -10  -1  274.56    6.72   0
  11 -10  -1  315.66    4.33   0
 -11 -10   1  276.01    4.85   0
 -11 -10   1  270.43    4.17   0
 -11 -10   1  298.04    5.33   0
 -11 -10   1  284.47    5.51   0
 -10 -10   1  186.59    4.61   0
 -10 -10   1  189.22    4.02   0
  10 -10  -1  170.96    4.75   0
 -10  10   1  176.77    4.85   0
  10 -10  -1  181.98    3.09   0
 -10 -10   1  173.71    4.72   0
 -10 -10   1  166.64    3.44   0
 -10  10   1  180.45    3.90   0
  -9  10   1  247.76    4.90   0
  -9 -10   1  260.27    4.21   0
  -9  10   1  248.48    3.34   0
  -9 -10   1  259.40    5.02   0
  -9 -10   1  257.37    5.06   0
   9 -10  -1  251.41    3.33   0
   9 -10  -1  247.02    4.90   0
  -9 -10   1  238.87    4.18   0
  -8  10   1   42.94    3.21   0
  -8 -10   1   44.26    3.09   0
  -8  10   1   42.75    3.36   0
  -8 -10   1   44.47    3.38   0
   8 -10  -1   48.13    3.13   0
   8 -10  -1   41.58    3.25   0
  -8 -10   1   42.41    3.49   0
   7 -10  -1   11.25    2.04   0
  -7 -10   1   10.25    2.77   0
  -7 -10   1   12.59    3.04   0
   7 -10  -1   11.87    2.90   0
  -7  10   1   11.28    2.97   0
  -7  10   1   11.92    2.05   0
  -6  10   1   18.16    2.08   0
  -6 -10   1   18.16    2.01   0
  -6  10   1   15.79    2.91   0
   6 -10  -1   16.75    2.89   0
  -6 -10   1   18.99    3.10   0
   6 -10  -1   17.33    2.08   0
  -5  10   1   76.09    3.11   0
   5 -10  -1   76.72    2.34   0
  -5 -10   1   80.14    4.07   0
  -5  10   1   77.35    2.34   0
   5 -10  -1   70.83    3.07   0
  -5 -10   1   71.51    2.26   0
  -4  10   1   13.23    1.98   0
  -4 -10   1   17.50    2.86   0
   4 -10  -1   10.67    2.65   0
  -4  10   1   14.32    1.98   0
   4 -10  -1   14.62    2.66   0
  -4 -10   1   14.84    1.94   0
  -3 -10   1   12.67    2.85   0
  -3 -10   1   12.85    1.86   0
   3 -10  -1   15.69    2.64   0
  -3  10   1   13.26    2.67   0
   3 -10  -1   14.88    2.68   0
   3  10  -1   12.59    2.98   0
  -3  10   1   12.99    1.95   0
   3  10  -1   12.44    1.84   0
  -2  10   1    6.83    2.60   0
   2  10  -1   11.57    2.83   0
   2 -10  -1   11.48    2.68   0
   2  10  -1    8.06    2.49   0
  -2 -10   1   10.48    1.77   0
  -2  10   1   12.31    2.70   0
  -2 -10   1    9.74    2.69   0
   2 -10  -1   10.42    1.91   0
   1 -10  -1   99.64    3.05   0
  -1  10   1   93.20    2.78   0
   1  10  -1   91.92    2.78   0
   1 -10  -1   95.23    3.37   0
  -1 -10   1   94.15    2.78   0
  -1 -10   1   94.66    2.34   0
  -1  10   1   93.50    3.05   0
   1  10  -1   91.72    2.96   0
   0  10  -1 1039.21    5.92   0
   0  10   1 1061.18    6.16   0
   0  10  -1 1133.51    7.45   0
   0 -10  -1 1097.20    7.66   0
   0 -10  -1 1134.51    6.25   0
   0 -10   1 1092.56    6.88   0
   0  10   1 1124.55    8.16   0
   0 -10   1 1090.28    6.02   0
  -1  10  -1  157.97    2.95   0
   1 -10   1  167.52    2.88   0
  -1 -10  -1  169.05    4.05   0
   1 -10   1  173.66    3.55   0
  -1 -10  -1  168.47    3.27   0
   1  10   1  164.42    3.25   0
  -1  10  -1  170.85    3.56   0
   1  10   1  167.43    4.17   0
  -2  10  -1    1.55    1.85   0
  -2 -10  -1    2.11    2.47   0
   2 -10   1    2.41    1.78   0
   2 -10   1    0.42    2.59   0
  -2  10  -1    5.06    2.75   0
  -2 -10  -1    3.06    2.51   0
   2  10   1    2.83    1.80   0
   2  10   1    2.79    3.30   0
  -3 -10  -1  522.95    4.31   0
  -3 -10  -1  543.81    7.94   0
   3 -10   1  542.25    4.80   0
   3 -10   1  531.20    4.99   0
   3  10   1  490.29    4.25   0
  -3  10  -1  516.02    4.43   0
  -3  10  -1  497.72    4.51   0
   4  10   1  122.24    3.27   0
   4 -10   1  131.47    3.59   0
  -4 -10  -1  131.17    2.71   0
   4 -10   1  130.53    2.65   0
  -4  10  -1  127.53    3.25   0
  -4 -10  -1  127.54    5.03   0
  -4  10  -1  119.70    2.83   0
  -5 -10  -1  263.83    3.89   0
  -5  10  -1  251.93    4.09   0
  -5  10  -1  263.89    3.81   0
   5  10   1  239.26    3.88   0
   5 -10   1  292.44    3.90   0
  -5 -10  -1  268.37    6.96   0
   5 -10   1  250.32    4.13   0
  -5 -10  -1  264.20    6.69   0
  -6  10  -1   53.93    2.49   0
  -6 -10  -1   61.45    4.84   0
  -6 -10  -1   58.29    3.06   0
  -6 -10  -1   58.68    4.39   0
   6 -10   1   53.76    3.02   0
  -6  10  -1   54.52    2.31   0
   6 -10   1   57.44    3.14   0
   7 -10   1   32.40    2.19   0
   7 -10   1   32.03    3.18   0
  -7 -10  -1   35.99    4.57   0
  -7  10  -1   33.52    2.24   0
  -7 -10  -1   36.42    4.11   0
  -7 -10  -1   37.30    2.97   0
  -8 -10  -1    1.57    3.01   0
   8 -10   1    1.76    2.04   0
  -8  10  -1    4.74    2.87   0
  -8 -10  -1    0.33    3.08   0
   8 -10   1    2.06    3.08   0
  -8 -10  -1    0.67    3.67   0
   9 -10   1    2.38    2.98   0
  -9 -10  -1    1.45    3.06   0
  -9 -10  -1    2.65    3.87   0
   9 -10   1    0.66    3.96   0
  -9  10  -1    2.25    3.10   0
  -9 -10  -1    0.93    3.88   0
 -10 -10  -1   10.46    3.28   0
 -10  10  -1   11.58    2.33   0
 -10 -10  -1   10.67    4.22   0
  10 -10   1   11.25    4.96   0
 -10 -10  -1   10.13    3.30   0
  10 -10   1   11.40    4.92   0
  10 -10   1   12.69    3.24   0
 -10 -10  -1   10.23    3.24   0
 -10  11   1   12.68    3.47   0
 -10  11   1   18.33    3.38   0
  10 -11  -1   11.99    3.49   0
  10 -11  -1   12.73    3.28   0
 -10 -11   1   13.15    2.33   0
 -10 -11   1   10.63    3.32   0
 -10 -11   1   13.25    3.56   0
 -10 -11   1   14.24    4.16   0
  -9  11   1   23.17    3.39   0
   9 -11  -1   23.77    3.41   0
  -9 -11   1   26.66    3.42   0
  -9 -11   1   26.39    3.16   0
  -9 -11   1   28.14    3.30   0
   9 -11  -1   27.45    2.33   0
  -9 -11   1   26.67    3.52   0
  -9  11   1   24.67    2.30   0
  -8 -11   1    0.65    2.10   0
  -8 -11   1    0.42    3.77   0
   8 -11  -1   -0.47    2.19   0
  -8 -11   1    2.17    2.98   0
  -8  11   1    1.41    2.14   0
   8 -11  -1    1.40    2.99   0
  -8  11   1    1.32    3.08   0
   7 -11  -1   89.20    2.71   0
  -7 -11   1  100.43    3.35   0
  -7  11   1   96.60    3.52   0
  -7 -11   1  103.73    3.83   0
   7 -11  -1  100.98    2.60   0
  -7  11   1   98.31    3.41   0
   6 -11  -1   76.96    3.30   0
  -6 -11   1   74.67    2.48   0
  -6  11   1   73.13    3.26   0
  -6 -11   1   82.36    3.61   0
  -6  11   1   80.59    3.22   0
   6 -11  -1   81.33    2.42   0
  -5 -11   1  165.27    3.52   0
  -5 -11   1  174.18    4.20   0
  -5  11   1  163.14    2.98   0
  -5  11   1  151.30    3.02   0
   5 -11  -1  174.91    3.47   0
   5 -11  -1  160.64    3.56   0
  -4 -11   1  167.72    4.12   0
  -4  11   1  150.58    3.49   0
   4 -11  -1  159.32    3.47   0
  -4  11   1  158.19    3.46   0
  -4 -11   1  154.32    2.78   0
   4 -11  -1  155.28    3.48   0
   3  11  -1   54.98    3.37   0
  -3 -11   1   58.70    2.16   0
   3 -11  -1   56.73    2.93   0
  -3  11   1   54.14    2.29   0
   3  11  -1   56.15    2.91   0
   3 -11  -1   61.37    2.32   0
  -3 -11   1   58.86    3.19   0
  -3  11   1   55.48    3.01   0
  -2  11   1  327.77    4.35   0
   2  11  -1  292.65    4.31   0
  -2 -11   1  339.89    4.81   0
  -2  11   1  317.46    3.60   0
   2  11  -1  312.26    3.91   0
   2 -11  -1  324.71    3.58   0
   2 -11  -1  328.75    3.90   0
  -2 -11   1  322.85    3.44   0
  -1  11   1   18.39    2.86   0
   1  11  -1   15.90    2.56   0
   1 -11  -1   18.20    2.63   0
   1  11  -1   19.03    2.90   0
   1 -11  -1   19.12    2.05   0
  -1 -11   1   18.68    1.85   0
  -1  11   1   17.16    1.92   0
  -1 -11   1   19.33    2.75   0
   0  11  -1   22.60    2.03   0
   0 -11   1   21.85    2.72   0
   0 -11  -1   22.02    2.59   0
   0  11   1   17.29    1.94   0
   0  11   1   22.52    2.90   0
   0  11  -1   23.50    2.81   0
   0 -11  -1   22.88    2.81   0
   0 -11   1   23.11    1.98   0
   1 -11   1   30.63    2.77   0
   1  11   1   34.17    3.10   0
  -1  11  -1   29.56    2.78   0
  -1  11  -1   29.66    2.14   0
   1 -11   1   35.02    2.69   0
   1  11   1   29.18    2.02   0
  -1 -11  -1   34.96    2.90   0
  -1 -11  -1   30.16    1.96   0
   2 -11   1   58.11    2.84   0
  -2  11  -1   52.97    2.25   0
  -2 -11  -1   52.39    2.14   0
  -2 -11  -1   57.16    3.32   0
   2  11   1   57.54    2.98   0
   2  11   1   52.26    3.44   0
   2 -11   1   60.92    2.92   0
  -2  11  -1   57.05    2.30   0
  -3  11  -1    8.68    1.91   0
   3 -11   1   12.01    2.61   0
   3 -11   1    8.81    2.67   0
  -3 -11  -1    9.32    2.74   0
  -3 -11  -1    8.50    2.77   0
   3  11   1    7.95    2.73   0
  -3  11  -1    8.86    2.69   0
  -4 -11  -1  254.92    3.80   0
   4  11   1  237.24    3.83   0
  -4  11  -1  235.28    3.46   0
   4 -11   1  238.50    3.43   0
  -4  11  -1  252.78    3.92   0
  -4 -11  -1  251.78    6.35   0
   4 -11   1  259.34    3.78   0
  -5  11  -1   12.35    2.04   0
  -5  11  -1   12.13    2.88   0
  -5 -11  -1   11.05    3.67   0
  -5 -11  -1   11.83    1.98   0
   5  11   1    8.31    2.03   0
   5 -11   1   13.64    2.05   0
   5 -11   1   12.46    2.83   0
  -5 -11  -1   11.92    4.23   0
   6 -11   1   40.10    3.05   0
  -6  11  -1   34.84    3.08   0
  -6 -11  -1   34.26    2.24   0
  -6 -11  -1   34.97    4.71   0
   6 -11   1   34.81    3.22   0
  -6 -11  -1   37.54    4.86   0
  -6  11  -1   36.48    3.13   0
  -7 -11  -1    5.33    2.91   0
   7 -11   1    5.57    2.11   0
   7 -11   1    5.13    3.04   0
  -7  11  -1    5.92    2.24   0
  -7 -11  -1    6.51    4.35   0
  -7 -11  -1    6.00    4.42   0
  -8 -11  -1   60.60    4.78   0
  -8 -11  -1   57.51    3.34   0
  -8  11  -1   61.84    2.57   0
   8 -11   1   57.12    3.60   0
  -8 -11  -1   61.80    5.22   0
   8 -11   1   60.50    2.51   0
  -9 -11  -1    3.54    4.04   0
   9 -11   1    1.71    4.07   0
  -9 -11  -1    3.38    2.29   0
  -9 -11  -1    3.04    4.51   0
   9 -11   1    3.62    3.12   0
  -9  11  -1    5.24    3.22   0
 -10  11  -1    9.14    2.45   0
 -10 -11  -1    9.57    4.83   0
 -10 -11  -1    9.10    3.36   0
  10 -11   1   13.38    3.33   0
  10 -11   1    9.02    4.31   0
  10 -11   1    9.39    4.19   0
 -10 -11  -1   10.21    5.04   0
 -10 -11  -1   10.11    2.38   0
 -10  12   1   86.91    4.82   0
  10 -12  -1  104.37    3.73   0
 -10 -12   1   98.70    3.80   0
 -10 -12   1   98.68    4.36   0
  10 -12  -1   86.13    4.21   0
 -10  12   1   92.57    2.95   0
 -10 -12   1   93.06    3.80   0
 -10 -12   1  104.94    5.09   0
  -9 -12   1  119.85    2.95   0
  -9  12   1  117.05    3.74   0
  -9 -12   1  111.24    2.98   0
   9 -12  -1  118.03    2.93   0
  -9  12   1  105.31    3.25   0
  -9 -12   1  118.98    4.33   0
   9 -12  -1  105.11    3.19   0
  -9 -12   1  125.54    4.48   0
  -8  12   1  143.93    4.03   0
  -8 -12   1  144.01    2.93   0
   8 -12  -1  138.21    3.96   0
  -8 -12   1  154.74    4.58   0
  -8 -12   1  154.95    5.06   0
   8 -12  -1  156.07    3.76   0
  -8  12   1  134.76    3.00   0
  -7 -12   1  281.80    5.77   0
  -7 -12   1  261.72    3.46   0
  -7  12   1  263.74    4.10   0
   7 -12  -1  249.60    4.36   0
   7 -12  -1  266.58    3.39   0
  -7  12   1  256.15    4.38   0
  -6  12   1   27.42    3.22   0
   6 -12  -1   29.91    2.95   0
   6 -12  -1   25.61    2.33   0
  -6  12   1   27.15    3.05   0
  -6 -12   1   25.76    2.17   0
  -6 -12   1   27.68    3.17   0
  -5 -12   1    2.77    2.72   0
   5 -12  -1    1.02    1.85   0
  -5  12   1    0.85    1.99   0
  -5  12   1    1.46    2.82   0
  -5 -12   1    1.82    2.84   0
   5 -12  -1    1.91    2.08   0
   4 -12  -1   32.93    2.88   0
  -4  12   1   32.07    2.92   0
  -4 -12   1   37.13    2.12   0
  -4 -12   1   30.47    2.31   0
  -4  12   1   35.51    2.24   0
   4 -12  -1   35.48    2.88   0
   3  12  -1   15.12    2.01   0
  -3 -12   1   17.35    2.74   0
  -3  12   1   18.46    2.79   0
   3 -12  -1   15.70    2.04   0
   3  12  -1   15.12    3.13   0
  -3  12   1   20.50    2.91   0
  -3 -12   1   17.95    2.91   0
   3 -12  -1   13.93    2.84   0
  -2 -12   1    1.23    1.79   0
   2  12  -1    3.54    1.86   0
   2 -12  -1    2.60    1.86   0
  -2 -12   1    3.07    2.75   0
  -2  12   1    2.46    1.86   0
   2  12  -1    3.56    2.88   0
   2 -12  -1    1.97    1.85   0
  -2  12   1    3.15    2.82   0
  -1  12   1  335.02    4.64   0
   1 -12  -1  333.41    4.57   0
  -1 -12   1  318.67    3.44   0
   1 -12  -1  332.23    4.10   0
   1  12  -1  314.25    4.65   0
  -1 -12   1  336.92    4.54   0
  -1  12   1  303.47    3.52   0
   1  12  -1  314.45    3.98   0
   0  12   1  366.07    4.63   0
   0  12  -1  372.25    4.74   0
   0 -12   1  360.79    3.67   0
   0  12  -1  353.47    3.70   0
   0  12   1  347.19    3.63   0
   0 -12   1  368.60    4.13   0
   0 -12  -1  387.32    4.17   0
   0 -12  -1  378.74    5.05   0
  -1  12  -1   82.85    3.34   0
   1 -12   1   76.59    2.46   0
  -1  12  -1   81.88    3.11   0
  -1 -12  -1   83.95    2.34   0
   1 -12   1   80.43    3.06   0
  -1 -12  -1   79.43    3.38   0
   1  12   1   72.97    2.30   0
   1  12   1   79.75    3.65   0
  -2 -12  -1   71.42    3.41   0
   2 -12   1   71.81    2.30   0
  -2  12  -1   72.11    3.16   0
   2 -12   1   67.39    2.41   0
  -2 -12  -1   73.19    2.34   0
   2  12   1   65.24    2.30   0
   2  12   1   66.72    4.15   0
  -2  12  -1   66.69    2.35   0
  -3  12  -1  133.57    3.34   0
  -3  12  -1  128.84    2.74   0
   3  12   1  122.82    3.28   0
  -3 -12  -1  132.94    4.29   0
  -3 -12  -1  141.54    3.39   0
   3 -12   1  134.01    2.73   0
   3 -12   1  136.29    3.41   0
   4  12   1  361.18    4.27   0
  -4  12  -1  359.50    3.73   0
   4 -12   1  388.46    4.30   0
  -4 -12  -1  393.06    4.25   0
  -4 -12  -1  372.79    7.48   0
  -4  12  -1  340.54    3.85   0
   4 -12   1  362.89    3.95   0
  -5 -12  -1   52.79    2.34   0
  -5  12  -1   52.73    3.26   0
   5 -12   1   50.62    3.14   0
   5  12   1   47.27    3.11   0
  -5  12  -1   55.85    3.09   0
  -5 -12  -1   50.02    5.09   0
   5 -12   1   50.96    2.25   0
  -5 -12  -1   54.69    5.21   0
   6 -12   1   35.47    3.19   0
   6 -12   1   34.29    2.25   0
  -6  12  -1   33.87    3.20   0
  -6 -12  -1   37.63    7.39   0
  -6 -12  -1   33.45    2.22   0
  -6 -12  -1   34.97    7.38   0
  -6  12  -1   35.41    3.16   0
  -7  12  -1   47.19    3.28   0
   7 -12   1   47.89    3.32   0
  -7 -12  -1   58.03    3.26   0
   7 -12   1   53.53    3.25   0
  -8  12  -1   84.75    2.75   0
  -8 -12  -1   87.88    3.55   0
   8 -12   1   81.68    3.77   0
   8 -12   1   94.66    3.52   0
   9 -12   1   18.78    4.23   0
  -9 -12  -1   22.42    3.35   0
   9 -12   1   25.01    3.40   0
  -9  12  -1   23.31    3.38   0
   9 -13  -1   64.01    3.83   0
  -9 -13   1   71.42    3.59   0
  -9 -13   1   68.48    3.56   0
  -9 -13   1   73.02    4.76   0
   9 -13  -1   70.48    3.53   0
  -9  13   1   60.80    2.73   0
  -9  13   1   64.82    3.81   0
  -9 -13   1   69.90    4.70   0
  -8 -13   1   56.37    4.53   0
  -8 -13   1   52.53    3.35   0
  -8  13   1   50.95    3.59   0
   8 -13  -1   56.52    2.57   0
  -8 -13   1   53.18    3.88   0
  -8  13   1   57.06    3.51   0
   8 -13  -1   48.62    3.50   0
   7 -13  -1   55.42    2.64   0
  -7  13   1   59.30    3.49   0
  -7  13   1   59.51    2.51   0
  -7 -13   1   59.62    2.45   0
   7 -13  -1   67.08    3.41   0
  -7 -13   1   64.01    4.27   0
  -6  13   1   74.73    3.45   0
   6 -13  -1   79.46    2.51   0
   6 -13  -1   74.47    3.41   0
  -6 -13   1   83.03    3.71   0
  -6 -13   1   79.13    2.54   0
  -6  13   1   83.97    3.41   0
  -5 -13   1   45.52    2.97   0
  -5 -13   1   41.15    3.30   0
   5 -13  -1   39.38    2.24   0
   5 -13  -1   39.90    3.11   0
  -5  13   1   40.91    3.23   0
  -5  13   1   45.34    3.11   0
   4 -13  -1   20.28    2.18   0
  -4 -13   1   17.79    2.14   0
  -4  13   1   20.10    2.17   0
  -4 -13   1   19.89    3.10   0
   4 -13  -1   19.24    2.14   0
  -4  13   1   17.46    2.26   0
  -3  13   1   43.20    3.08   0
   3 -13  -1   44.60    3.01   0
  -3  13   1   47.35    3.11   0
  -3 -13   1   47.32    3.19   0
   3  13  -1   43.33    3.39   0
  -3 -13   1   45.99    2.92   0
   3 -13  -1   47.31    3.05   0
  -2 -13   1  124.08    2.49   0
   2  13  -1  114.72    3.85   0
  -2  13   1  119.49    2.91   0
  -2 -13   1  127.14    3.62   0
  -2  13   1  112.98    2.64   0
   2  13  -1  113.53    2.64   0
   2 -13  -1  127.26    3.51   0
   2 -13  -1  120.58    2.60   0
  -1  13   1  203.89    3.71   0
  -1  13   1  224.18    4.23   0
  -1 -13   1  216.09    2.92   0
   1 -13  -1  224.78    3.65   0
  -1 -13   1  221.62    4.07   0
   1  13  -1  215.83    4.26   0
   1 -13  -1  218.39    3.54   0
   1  13  -1  212.87    3.70   0
   0 -13  -1  118.45    3.63   0
   0 -13   1  120.10    3.40   0
   0  13  -1  113.80    3.30   0
   0  13   1  119.16    3.76   0
   0  13   1  109.75    2.48   0
   0 -13   1  116.06    2.59   0
   0  13  -1  119.31    3.59   0
   0 -13  -1  121.05    3.26   0
   1  13   1    4.31    2.85   0
  -1 -13  -1    4.05    1.96   0
   1 -13   1    5.54    1.99   0
  -1  13  -1    7.33    2.91   0
   1 -13   1    5.98    2.73   0
   1  13   1    4.74    3.02   0
  -1 -13  -1    6.48    2.86   0
  -1  13  -1   11.33    2.83   0
   2 -13   1  323.26    4.06   0
   2  13   1  303.63    3.98   0
  -2  13  -1  305.67    3.69   0
  -2 -13  -1  319.07    5.86   0
  -2  13  -1  305.13    4.06   0
   2  13   1  280.45    5.40   0
   2 -13   1  304.53    3.59   0
  -2 -13  -1  317.72    3.98   0
   3 -13   1  226.63    3.26   0
   3  13   1  211.83    3.17   0
  -3 -13  -1  215.86    3.14   0
   3 -13   1  224.04    3.24   0
  -3  13  -1  225.93    3.93   0
  -3  13  -1  219.75    3.87   0
  -3 -13  -1  226.00    5.25   0
   4  13   1    3.38    2.98   0
  -4 -13  -1    2.02    3.61   0
  -4  13  -1    1.60    2.96   0
   4 -13   1    3.32    2.87   0
   4 -13   1    4.42    2.92   0
  -4 -13  -1    3.10    2.04   0
  -4  13  -1    3.41    2.88   0
  -5 -13  -1    4.99    2.89   0
  -5 -13  -1    4.25    5.78   0
   5  13   1    6.18    2.97   0
  -5 -13  -1    4.44    5.76   0
  -5  13  -1    4.18    2.18   0
   5 -13   1    9.02    2.86   0
   5 -13   1    6.01    3.01   0
  -5  13  -1    5.05    3.10   0
  -6  13  -1   37.43    2.37   0
   6 -13   1   39.76    3.30   0
   6 -13   1   40.49    2.28   0
  -6 -13  -1   36.89    2.38   0
  -6  13  -1   35.68    3.25   0
  -7 -13  -1   14.34    3.14   0
   7 -13   1   13.61    2.22   0
   7 -13   1   12.60    2.31   0
  -7  13  -1   12.85    2.33   0
  -8  13  -1   88.52    2.87   0
   8 -13   1   87.71    2.72   0
   8 -13   1   81.80    3.89   0
  -8 -13  -1   86.26    3.67   0
  -8 -14   1  296.34    3.79   0
   8 -14  -1  303.39    3.73   0
  -8  14   1  279.07    4.31   0
  -8 -14   1  316.56    7.02   0
   8 -14  -1  302.26    4.81   0
  -8  14   1  295.41    3.80   0
  -8 -14   1  317.30    7.01   0
   7 -14  -1  460.70    4.23   0
  -7  14   1  422.25    4.23   0
  -7 -14   1  448.05    6.95   0
  -7 -14   1  429.74    4.14   0
   7 -14  -1  428.51    5.11   0
  -7  14   1  439.72    5.21   0
   6 -14  -1  280.27    4.12   0
  -6 -14   1  260.21    5.84   0
  -6 -14   1  254.85    3.42   0
  -6  14   1  233.14    3.59   0
  -6  14   1  257.68    4.12   0
   6 -14  -1  251.77    4.28   0
  -5  14   1  187.93    3.92   0
   5 -14  -1  189.25    3.94   0
  -5 -14   1  190.09    4.55   0
  -5 -14   1  187.24    2.97   0
  -5  14   1  191.00    3.88   0
   5 -14  -1  196.64    3.90   0
  -4 -14   1    8.74    3.04   0
  -4  14   1    9.16    2.10   0
   4 -14  -1    8.50    2.18   0
   4 -14  -1    6.22    3.01   0
  -4  14   1    7.86    2.21   0
  -4 -14   1    6.75    2.09   0
   3 -14  -1   11.29    2.93   0
  -3  14   1    9.76    2.98   0
  -3  14   1    8.81    2.20   0
  -3 -14   1    8.60    2.81   0
  -3 -14   1    8.95    2.80   0
   3  14  -1    7.26    3.25   0
   3 -14  -1    7.44    2.02   0
  -2 -14   1    4.82    2.86   0
  -2  14   1    5.26    2.08   0
   2 -14  -1    5.32    2.04   0
  -2 -14   1    3.55    1.92   0
   2 -14  -1    7.89    2.87   0
  -2  14   1    5.52    2.20   0
   2  14  -1    3.73    2.19   0
   2  14  -1    5.16    2.03   0
  -1 -14   1   48.29    3.11   0
  -1 -14   1   43.97    2.25   0
   1  14  -1   41.84    3.00   0
   1 -14  -1   50.17    3.13   0
  -1  14   1   46.01    3.21   0
   1 -14  -1   50.47    3.02   0
   1  14  -1   43.81    3.30   0
  -1  14   1   42.70    2.99   0
   0 -14   1  196.11    3.61   0
   0 -14  -1  187.05    3.52   0
   0  14   1  182.89    3.55   0
   0 -14  -1  188.37    2.96   0
   0  14  -1  185.01    3.66   0
   0 -14   1  185.90    3.27   0
   0  14   1  186.08    4.20   0
   0  14  -1  186.38    3.38   0
   1 -14   1  536.51    4.69   0
  -1  14  -1  482.99    4.14   0
   1  14   1  470.19    4.02   0
  -1 -14  -1  534.42    6.13   0
   1  14   1  491.13    6.19   0
  -1 -14  -1  544.10    4.59   0
   1 -14   1  515.86    5.13   0
  -1  14  -1  495.66    4.63   0
  -2 -14  -1 1134.03    6.20   0
   2  14   1 1012.10    5.52   0
   2 -14   1 1157.18    6.75   0
   2  14   1 1026.43    8.99   0
  -2 -14  -1 1141.45    9.14   0
  -2  14  -1 1123.47    6.85   0
   2 -14   1 1095.00    5.85   0
  -2  14  -1 1018.55    5.68   0
   3 -14   1 1507.56    7.38   0
  -3  14  -1 1349.09    6.73   0
   3  14   1 1328.19    6.28   0
  -3  14  -1 1482.47    7.46   0
  -3 -14  -1 1435.47    6.39   0
   3 -14   1 1425.07    6.72   0
  -3 -14  -1 1505.63   12.09   0
  -4 -14  -1  749.18    4.90   0
  -4  14  -1  731.46    5.78   0
  -4  14  -1  733.65    5.08   0
   4  14   1  702.42    5.33   0
   4 -14   1  743.54    5.27   0
   4 -14   1  797.38    5.63   0
  -4 -14  -1  797.79   11.30   0
   5 -14   1  258.97    4.03   0
  -5  14  -1  225.37    3.59   0
   5 -14   1  237.08    3.58   0
  -5 -14  -1  255.46    3.99   0
  -5  14  -1  254.15    4.09   0
   6 -14   1  240.16    3.82   0
  -6  14  -1  274.28    4.31   0
  -6 -14  -1  276.66    4.13   0
   6 -14   1  281.65    4.12   0
   7 -14   1  114.54    3.23   0
  -7  14  -1  128.48    3.95   0
   7 -14   1  141.43    3.76   0
  -7 -14  -1  137.48    3.83   0
  -8  14  -1   26.51    3.51   0
  -8 -14  -1   31.68    3.42   0
   8 -14   1   31.31    3.53   0
   8 -14   1   29.50    3.50   0
   7 -15  -1    2.93    3.30   0
  -7 -15   1    0.55    3.15   0
   7 -15  -1    4.09    3.21   0
  -7 -15   1    1.95    3.97   0
  -7  15   1    2.19    3.34   0
  -7  15   1    4.12    3.40   0
  -6  15   1    1.76    2.29   0
   6 -15  -1    4.68    3.23   0
  -6 -15   1    4.36    3.05   0
  -6  15   1    1.72    2.36   0
   6 -15  -1    0.34    2.23   0
  -6 -15   1    0.76    3.14   0
   5 -15  -1   19.10    2.37   0
   5 -15  -1   19.51    3.19   0
  -5 -15   1   19.64    3.24   0
  -5 -15   1   17.96    2.32   0
  -5  15   1   18.16    3.33   0
  -5  15   1   21.23    3.31   0
   4 -15  -1   33.35    3.18   0
  -4  15   1   26.51    2.45   0
  -4  15   1   24.71    2.44   0
  -4 -15   1   28.88    3.26   0
  -4 -15   1   30.69    2.32   0
   4 -15  -1   26.81    3.18   0
  -3 -15   1   10.49    3.05   0
  -3  15   1   11.26    3.15   0
  -3 -15   1   13.45    2.01   0
  -3  15   1   10.72    2.26   0
   3  15  -1   14.74    3.37   0
   3 -15  -1   13.53    3.04   0
   3 -15  -1    8.77    3.07   0
  -2  15   1   62.74    2.52   0
   2 -15  -1   72.21    3.41   0
   2  15  -1   64.70    3.71   0
  -2 -15   1   62.42    2.42   0
  -2  15   1   74.47    3.51   0
   2 -15  -1   71.57    2.50   0
  -2 -15   1   66.34    2.74   0
   1 -15  -1   14.37    2.14   0
   1  15  -1   14.07    2.21   0
   1 -15  -1   18.43    3.04   0
  -1 -15   1   15.39    2.12   0
  -1 -15   1   14.66    3.02   0
   1  15  -1   12.86    2.40   0
  -1  15   1   15.47    3.20   0
  -1  15   1   15.30    3.11   0
   0  15  -1   58.03    2.50   0
   0 -15   1   66.76    3.22   0
   0 -15  -1   59.92    2.44   0
   0  15  -1   58.39    2.68   0
   0  15   1   62.25    3.63   0
   0  15   1   65.29    3.20   0
   0 -15  -1   63.06    3.48   0
   0 -15   1   66.54    3.33   0
  -1 -15  -1    6.86    1.97   0
   1 -15   1    7.42    3.02   0
  -1  15  -1    3.72    3.13   0
   1  15   1    4.57    2.14   0
   1  15   1    6.33    3.29   0
  -1 -15  -1    6.48    3.05   0
   1 -15   1    5.07    2.13   0
  -1  15  -1    5.18    3.07   0
   2 -15   1   35.76    3.20   0
   2  15   1   35.54    3.12   0
  -2  15  -1   29.22    2.36   0
  -2 -15  -1   34.24    4.05   0
   2  15   1   33.49    3.53   0
  -2 -15  -1   36.96    2.17   0
   2 -15   1   40.89    3.19   0
  -2  15  -1   33.07    2.43   0
  -3 -15  -1   29.35    3.13   0
   3 -15   1   27.81    3.05   0
  -3  15  -1   27.81    2.41   0
   3  15   1   27.78    3.22   0
  -3 -15  -1   28.61    4.06   0
  -3  15  -1   27.62    3.39   0
   3 -15   1   26.25    2.27   0
   4 -15   1  138.25    2.98   0
  -4 -15  -1  145.79    3.61   0
   4 -15   1  137.04    3.05   0
  -4  15  -1  134.38    3.78   0
   4  15   1  125.15    2.77   0
  -4  15  -1  127.77    3.02   0
  -4 -15  -1  140.08    6.36   0
   5 -15   1    2.39    2.23   0
   5 -15   1    1.62    2.23   0
  -5 -15  -1   -1.21    2.15   0
  -5  15  -1   -0.03    2.31   0
   6 -15   1    2.23    3.27   0
  -6 -15  -1    0.24    2.22   0
  -6  15  -1    0.41    2.38   0
   6 -15   1    3.31    3.18   0
  -7 -15  -1   23.53    2.47   0
  -7  15  -1   27.17    3.48   0
   7 -15   1   20.42    2.56   0
   7 -15   1   28.62    3.42   0
  -6  16   1  244.82    3.73   0
   6 -16  -1  279.18    4.39   0
  -6 -16   1  285.02    4.25   0
   6 -16  -1  261.96    4.47   0
  -6 -16   1  267.17    6.56   0
  -6  16   1  245.81    4.61   0
  -5  16   1  151.69    4.02   0
  -5 -16   1  154.19    3.04   0
   5 -16  -1  171.24    3.90   0
  -5 -16   1  158.68    5.15   0
  -5  16   1  157.75    3.97   0
   5 -16  -1  159.89    3.96   0
  -4  16   1   34.46    2.39   0
  -4 -16   1   34.91    2.38   0
   4 -16  -1   35.26    3.25   0
  -4 -16   1   38.82    3.52   0
   4 -16  -1   38.32    3.38   0
  -4  16   1   36.94    3.49   0
   3 -16  -1  184.53    3.91   0
   3  16  -1  155.58    4.53   0
  -3 -16   1  181.60    2.97   0
  -3  16   1  165.83    3.96   0
  -3  16   1  181.00    4.20   0
  -3 -16   1  186.99    4.40   0
   3 -16  -1  187.58    4.06   0
  -2 -16   1    6.87    2.97   0
  -2  16   1    8.96    2.33   0
  -2 -16   1    9.42    3.13   0
   2 -16  -1   10.84    2.24   0
   2  16  -1   10.20    3.41   0
  -2  16   1   10.71    3.26   0
   2 -16  -1   11.16    3.15   0
   1  16  -1   54.77    3.60   0
   1 -16  -1   61.19    2.47   0
  -1  16   1   55.57    3.58   0
  -1 -16   1   56.63    2.63   0
  -1  16   1   58.31    3.46   0
   1 -16  -1   61.97    3.44   0
  -1 -16   1   55.53    3.16   0
   0  16  -1  241.02    4.55   0
   0  16   1  235.42    4.76   0
   0 -16   1  237.27    4.30   0
   0 -16  -1  245.09    3.88   0
   0  16  -1  223.03    3.27   0
   0  16   1  217.20    3.20   0
   0 -16   1  233.81    3.25   0
   0 -16  -1  248.67    4.61   0
  -1  16  -1  232.88    4.02   0
   1 -16   1  247.47    3.28   0
   1  16   1  237.05    3.94   0
  -1  16  -1  240.69    3.74   0
   1  16   1  236.80    5.06   0
  -1 -16  -1  252.07    3.25   0
   1 -16   1  248.66    4.32   0
  -1 -16  -1  257.25    5.04   0
   2  16   1  467.22    4.23   0
   2  16   1  477.96    7.31   0
  -2  16  -1  495.22    5.00   0
   2 -16   1  501.20    4.36   0
  -2 -16  -1  531.67    6.79   0
  -2  16  -1  495.24    5.34   0
  -2 -16  -1  533.30    4.94   0
   2 -16   1  531.43    5.28   0
  -3  16  -1  743.44    5.22   0
  -3  16  -1  825.26    6.20   0
   3  16   1  701.71    4.92   0
   3 -16   1  759.93    5.22   0
  -3 -16  -1  803.09    5.16   0
  -3 -16  -1  828.86    9.89   0
   3 -16   1  797.64    5.51   0
  -4 -16  -1  568.88   12.03   0
   4 -16   1  534.58    4.67   0
  -4 -16  -1  557.78    4.45   0
   4  16   1  493.60    4.28   0
  -4  16  -1  531.46    4.72   0
   4 -16   1  574.24    5.29   0
  -5 -16  -1  519.88    5.04   0
   5 -16   1  480.40    4.60   0
   5 -16   1  463.84    4.63   0
  -5  16  -1  496.54    5.13   0
   6 -16   1  360.71    5.05   0
  -6  16  -1  376.40    4.82   0
   6 -16   1  381.54    4.76   0
  -6 -16  -1  347.31    4.07   0
   5 -17  -1    7.22    3.30   0
  -5  17   1    4.49    3.44   0
  -5  17   1    3.67    3.45   0
  -5 -17   1    5.34    2.31   0
  -5 -17   1    3.11    4.05   0
   5 -17  -1    1.46    3.34   0
   4 -17  -1   -0.69    2.41   0
  -4  17   1    2.66    2.44   0
   4 -17  -1    1.63    2.33   0
  -4 -17   1    4.75    3.03   0
  -4 -17   1    2.19    3.24   0
  -4  17   1    3.15    3.39   0
  -3  17   1   28.65    3.43   0
  -3 -17   1   25.67    2.34   0
   3 -17  -1   30.60    3.43   0
  -3 -17   1   30.09    3.47   0
   3 -17  -1   29.38    3.39   0
  -3  17   1   28.21    3.53   0
  -2  17   1    4.02    3.32   0
   2  17  -1    6.99    3.46   0
   2 -17  -1    8.44    2.32   0
  -2 -17   1    5.73    3.21   0
  -2  17   1    7.32    3.43   0
   2 -17  -1    7.60    2.22   0
  -2 -17   1    8.95    3.20   0
   1  17  -1   42.82    3.79   0
   1 -17  -1   48.15    3.28   0
  -1  17   1   37.08    2.78   0
  -1  17   1   36.47    2.53   0
   1 -17  -1   40.06    2.64   0
  -1 -17   1   47.02    3.32   0
  -1 -17   1   40.54    2.63   0
   0 -17  -1   50.60    3.48   0
   0  17   1   49.30    3.74   0
   0 -17  -1   51.21    2.43   0
   0 -17   1   52.54    2.62   0
   0  17   1   46.64    2.51   0
   0 -17   1   50.65    2.50   0
   0  17  -1   43.10    3.72   0
  -1 -17  -1    1.13    3.26   0
   1  17   1    4.00    2.29   0
   1 -17   1    1.70    3.05   0
  -1 -17  -1    3.85    3.14   0
   1 -17   1    3.42    2.28   0
  -1  17  -1    2.46    3.32   0
   1  17   1    1.05    3.47   0
   2 -17   1   38.07    3.40   0
  -2  17  -1   42.56    3.62   0
  -2 -17  -1   38.28    3.59   0
   2 -17   1   40.91    3.43   0
   2  17   1   38.50    3.81   0
   2  17   1   36.77    3.43   0
  -2 -17  -1   41.57    2.44   0
   3  17   1   41.51    3.53   0
  -3  17  -1   36.92    2.72   0
   3 -17   1   46.31    3.43   0
  -3 -17  -1   41.19    3.36   0
  -3 -17  -1   43.87    4.62   0
   3 -17   1   45.54    3.44   0
  -4 -17  -1    8.15    3.26   0
  -4  17  -1    7.64    3.44   0
   4 -17   1    6.95    2.29   0
   4 -17   1    5.06    3.21   0
  -3  18   1   24.59    3.52   0
   3 -18  -1   23.26    3.48   0
  -3 -18   1   21.35    2.41   0
  -3 -18   1   21.61    3.58   0
   3 -18  -1   28.45    3.42   0
  -2 -18   1    5.38    3.18   0
   2  18  -1    2.93    3.46   0
  -2 -18   1    4.90    3.29   0
   2 -18  -1    3.63    2.31   0
  -2  18   1    3.11    3.40   0
  -2  18   1    3.81    3.50   0
   2 -18  -1    4.74    3.35   0
  -1  18   1    1.39    2.45   0
   1  18  -1    1.31    3.53   0
  -1 -18   1    0.53    3.27   0
  -1  18   1    0.79    2.60   0
  -1 -18   1   -3.00    3.17   0
   1 -18  -1    0.23    3.27   0
   1 -18  -1    0.80    3.37   0
   0  18  -1    1.17    3.45   0
   0 -18  -1    2.44    3.34   0
   0 -18   1    1.55    3.12   0
   0  18   1    0.25    3.40   0
   0 -18   1    2.57    3.29   0
   0 -18  -1    2.07    2.17   0
   0  18   1   -1.29    3.56   0
   1  18   1    3.73    3.57   0
   1  18   1    5.80    2.40   0
  -1 -18  -1    2.98    2.29   0
   1 -18   1    6.32    3.32   0
  -1  18  -1    3.66    2.54   0
  -1 -18  -1    2.89    3.33   0
   1 -18   1    4.51    3.33   0
  -2 -18  -1   60.78    4.02   0
  -2 -18  -1   65.75    3.59   0
   2 -18   1   75.61    3.73   0
  -2  18  -1   58.78    2.96   0
   2 -18   1   67.45    3.63   0
   2  18   1   58.80    2.71   0
 -13   0   2   84.66    3.66   0
 -12   0   2   89.06    3.50   0
 -11   0   2  655.48   10.68   0
 -11   0   2  614.32   10.51   0
 -11   0   2  696.72    5.41   0
 -10   0   2   66.46    2.45   0
 -10   0   2   66.76    4.39   0
 -10   0   2   63.08    4.24   0
  -9   0   2   78.24    3.17   0
  -9   0   2   73.50    3.75   0
  -8   0   2   38.05    3.57   0
  -8   0   2   34.04    2.20   0
  -7   0   2 1297.31    7.28   0
  -7   0   2 1345.72   10.33   0
   7   0  -2 1219.65    9.56   0
  -6   0   2 2883.35   10.79   0
   6   0  -2 2842.22   14.46   0
  -6   0   2 3058.85   15.26   0
  -5   0   2  486.06    5.01   0
  -5   0   2  519.30    6.74   0
   5   0  -2  491.30    6.46   0
   4   0  -2 4663.92   19.41   0
  -4   0   2 4899.20   20.19   0
  -4   0   2 4877.81   16.37   0
  -3   0   2 4010.54   19.05   0
   3   0  -2 4048.81   19.02   0
   2   0  -2  546.78    7.67   0
  -2   0   2  561.99    8.13   0
  -1   0   2 2491.02   17.39   0
   1   0  -2 2437.89   16.98   0
   0   0  -2  973.59   12.20   0
   0   0   2  991.77   12.29   0
   0   0   2  994.71   12.18   0
   0   0  -2  998.22   12.17   0
  -1   0  -2 5400.70   24.10   0
   1   0   2 5213.37   23.50   0
   2   0   2    2.87    2.83   0
  -2   0  -2    2.45    2.77   0
  -2   0  -2    2.84    3.51   0
   2   0   2    2.66    2.74   0
   3   0   2   17.62    4.08   0
  -3   0  -2   17.53    2.80   0
  -3   0  -2   18.25    3.80   0
   3   0   2   19.40    2.76   0
  -4   0  -2  605.64    6.02   0
   4   0   2  587.77    5.93   0
   5   0   2 2057.94    9.51   0
  -5   0  -2 2166.66   10.02   0
   6   0   2 1612.19    8.03   0
  -6   0  -2 1646.11    8.11   0
  -7   0  -2 1671.46    8.11   0
   7   0   2 1594.27    7.61   0
   8   0   2  792.36    5.46   0
  -8   0  -2  834.55    5.96   0
  -9   0  -2 1968.60    8.16   0
 -10   0  -2  295.85    4.38   0
 -11   0  -2   -2.51    3.19   0
 -12   0  -2  197.60    4.30   0
 -13   1   2   84.17    2.88   0
 -13  -1   2   94.31    3.66   0
 -12  -1   2   15.02    5.85   0
 -12   1   2   16.75    2.35   0
 -12  -1   2   12.68    2.40   0
 -12  -1   2   16.01    5.69   0
 -11   1   2   10.90    5.44   0
 -11   1   2   10.83    5.37   0
 -11  -1   2   11.04    3.81   0
 -11   1   2   11.53    2.16   0
 -11  -1   2   14.87    3.05   0
 -11  -1   2   10.91    4.11   0
 -10  -1   2  199.96    5.49   0
 -10   1   2  177.66    5.82   0
 -10   1   2  176.41    5.71   0
 -10  -1   2  187.32    3.07   0
 -10   1   2  178.46    3.01   0
 -10  -1   2  178.00    4.68   0
  -9  -1   2  799.04    8.19   0
  -9  -1   2  735.92    7.75   0
  -9   1   2  757.26    5.06   0
  -9   1   2  733.92    8.87   0
  -9  -1   2  776.76    5.67   0
  -8  -1   2   19.88    2.75   0
  -8   1   2   19.11    2.92   0
  -8  -1   2   19.38    2.83   0
  -8   1   2   18.74    1.99   0
   8  -1  -2   18.70    2.78   0
  -7  -1   2  398.46    5.69   0
  -7  -1   2  377.86    4.12   0
   7  -1  -2  379.27    5.86   0
  -7   1   2  389.88    6.16   0
  -7   1   2  375.19    3.96   0
   6  -1  -2    2.37    2.50   0
  -6  -1   2    2.91    2.51   0
  -6   1   2    2.29    2.57   0
  -6   1   2    0.83    1.84   0
  -6  -1   2    2.85    2.58   0
   5   1  -2  499.07    6.24   0
  -5  -1   2  523.09    5.63   0
   5  -1  -2  501.17    6.63   0
  -5  -1   2  524.12    6.44   0
  -5   1   2  516.25    6.94   0
  -5   1   2  491.91    4.86   0
   4  -1  -2  291.73    5.47   0
   4   1  -2  289.89    5.22   0
  -4  -1   2  301.41    5.39   0
  -4   1   2  287.40    5.28   0
  -4   1   2  301.90    4.74   0
  -3  -1   2  369.06    6.09   0
  -3   1   2  376.48    6.56   0
   3  -1  -2  368.54    6.33   0
   3   1  -2  361.97    5.99   0
  -3   1   2  351.36    5.10   0
  -2  -1   2  575.41    7.79   0
  -2   1   2  579.63    7.93   0
   2   1  -2  560.18    7.39   0
   2  -1  -2  582.42    7.80   0
   1   1  -2   68.98    4.07   0
   1   1  -2   69.53    4.32   0
   1  -1  -2   71.62    4.16   0
  -1   1   2   70.00    3.55   0
  -1  -1   2   68.06    3.45   0
  -1  -1   2   66.91    3.58   0
   0   1  -2   69.53    4.25   0
   0  -1  -2   67.67    5.09   0
   0   1  -2   75.31    4.30   0
   0  -1   2   70.62    3.51   0
   0   1   2   67.93    5.04   0
   0   1   2   64.80    3.53   0
   0  -1   2   70.58    4.36   0
   0  -1  -2   66.27    3.53   0
  -1   1  -2 2261.18   13.78   0
   1  -1   2 2216.35   13.59   0
   1  -1   2 2295.13   19.09   0
   1   1   2 2254.64   18.41   0
  -1   1  -2 2241.48   18.78   0
   1   1   2 2095.84   16.24   0
  -1  -1  -2 2164.30   16.74   0
  -1  -1  -2 2368.03   19.10   0
   2   1   2  271.79    6.55   0
  -2   1  -2  290.00    5.06   0
  -2  -1  -2  295.45    6.03   0
  -2  -1  -2  271.09    6.62   0
   2  -1   2  274.69    4.53   0
   2   1   2  281.21    5.87   0
  -2   1  -2  265.03    7.95   0
   2  -1   2  290.33    8.60   0
  -3   1  -2  135.29    3.25   0
  -3  -1  -2  143.13    4.05   0
  -3  -1  -2  120.25    4.80   0
   3  -1   2  135.74    3.72   0
   3   1   2  128.01    4.87   0
   3   1   2  139.48    3.58   0
   4   1   2  356.46    4.75   0
  -4  -1  -2  383.90    5.21   0
  -4   1  -2  388.44    4.93   0
   4  -1   2  359.70    4.40   0
   4   1   2  352.61    8.01   0
  -4  -1  -2  342.31    7.97   0
  -5  -1  -2 1400.46   16.98   0
   5   1   2 1457.27    8.67   0
  -5   1  -2 1461.45    7.80   0
  -5  -1  -2 1518.56    8.84   0
   5  -1   2 1413.35    7.62   0
  -6   1  -2    5.35    2.48   0
   6  -1   2    3.80    2.45   0
  -6  -1  -2    3.55    2.59   0
   6   1   2    5.41    2.52   0
  -7   1  -2    3.44    1.86   0
   7   1   2    3.49    2.59   0
   7  -1   2    4.39    2.66   0
  -7  -1  -2    2.49    2.73   0
   8  -1   2   54.07    3.03   0
  -8   1  -2   57.04    2.35   0
  -8  -1  -2   60.12    3.16   0
  -9   1  -2   -1.23    2.19   0
  -9  -1  -2    1.70    2.09   0
   9  -1   2    1.96    2.95   0
 -10   1  -2    5.01    3.05   0
 -10  -1  -2    4.08    2.16   0
 -11   1  -2    5.85    3.21   0
 -11  -1  -2    5.44    2.28   0
 -12   1  -2    4.77    2.45   0
 -12  -1  -2    4.25    2.39   0
 -13   2   2   88.93    3.68   0
 -13  -2   2   93.65    3.78   0
 -12  -2   2    5.08    3.96   0
 -12   2   2    3.88    3.12   0
 -12  -2   2    5.07    3.82   0
 -12  -2   2    7.87    3.17   0
 -11  -2   2    1.10    3.51   0
 -11  -2   2    2.67    3.77   0
 -11   2   2    2.31    2.08   0
 -11  -2   2    2.55    2.14   0
 -10  -2   2   30.49    3.75   0
 -10  -2   2   32.02    3.28   0
 -10   2   2   30.70    3.07   0
 -10   2   2   30.75    4.04   0
 -10  -2   2   30.68    3.03   0
  -9  -2   2   13.99    2.17   0
  -9  -2   2   15.78    2.97   0
  -9   2   2   15.66    3.48   0
  -9   2   2   14.20    2.85   0
  -9  -2   2   15.27    2.78   0
   9  -2  -2   15.76    3.45   0
  -8  -2   2  431.62    4.73   0
  -8  -2   2  398.89    5.49   0
  -8  -2   2  441.30    5.78   0
   8  -2  -2  415.76    6.25   0
  -8   2   2  408.64    4.00   0
  -8   2   2  385.53    6.21   0
  -7  -2   2 1040.05    6.80   0
  -7   2   2  963.40    9.00   0
   7  -2  -2 1016.47    9.22   0
  -7  -2   2 1056.62    8.33   0
  -7   2   2  999.40    5.97   0
  -6  -2   2 2646.74   11.01   0
   6  -2  -2 2598.70   14.03   0
  -6   2   2 2582.86    9.90   0
  -6  -2   2 2624.29   12.65   0
  -6   2   2 2413.50   13.75   0
  -5  -2   2 3694.47   15.17   0
  -5   2   2 3677.08   12.44   0
  -5   2   2 3465.70   16.40   0
   5  -2  -2 3703.25   16.56   0
  -4  -2   2 1824.42   11.03   0
  -4   2   2 1769.17    9.36   0
   4  -2  -2 1846.65   12.08   0
  -4   2   2 1721.39   11.87   0
  -3  -2   2 1694.01   10.97   0
  -3   2   2 1603.75   11.75   0
  -3   2   2 1638.44   10.09   0
   3  -2  -2 1677.47   11.89   0
  -2   2   2  726.06    7.97   0
   2  -2  -2  723.70    8.19   0
  -2  -2   2  716.10    8.56   0
  -2   2   2  701.07    8.14   0
  -2  -2   2  718.51    7.57   0
   1  -2  -2 2172.61   13.89   0
  -1  -2   2 2205.26   14.46   0
  -1   2   2 2056.19   13.45   0
   1   2  -2 2194.77   14.61   0
  -1  -2   2 2191.61   13.73   0
   0  -2  -2 1776.12   12.79   0
   0  -2   2 1780.00   13.37   0
   0   2  -2 1837.83   12.55   0
   0  -2   2 1887.16   12.81   0
   0   2   2 1685.26   12.53   0
   1   2   2 1162.88   17.46   0
   1  -2   2 1217.50    9.43   0
   1  -2   2 1135.74   11.58   0
   1   2   2 1123.75   10.35   0
  -1  -2  -2 1231.57   18.51   0
  -1  -2  -2 1134.07   10.44   0
  -1   2  -2 1179.09    9.17   0
  -2  -2  -2  211.56    5.12   0
   2  -2   2  212.36    3.86   0
   2  -2   2  210.98    6.29   0
   2  -2   2  208.74    6.02   0
  -2  -2  -2  218.78    5.95   0
   2   2   2  202.55    4.99   0
   2   2   2  216.12    5.88   0
  -2   2  -2  213.34    3.95   0
   3  -2   2    3.30    1.82   0
   3  -2   2    2.12    3.11   0
   3   2   2    1.85    2.46   0
   3  -2   2    2.69    3.14   0
   3   2   2    3.41    2.55   0
  -3   2  -2    2.68    1.91   0
  -3  -2  -2   11.41    2.64   0
  -3  -2  -2    2.51    2.47   0
   4   2   2 1260.43    9.33   0
   4  -2   2 1204.00    7.18   0
  -4  -2  -2 1250.14   11.51   0
  -4  -2  -2 1293.24    9.42   0
  -4   2  -2 1249.87    7.29   0
   4   2   2 1183.56   10.82   0
   5   2   2  631.91    6.31   0
   5  -2   2  613.63    5.02   0
  -5  -2  -2  652.21    6.39   0
  -5  -2  -2  621.01    8.34   0
  -5   2  -2  638.46    5.16   0
   6  -2   2  768.12    5.64   0
  -6  -2  -2  743.68    9.41   0
  -6  -2  -2  734.56    9.74   0
   6   2   2  761.71    6.56   0
  -6   2  -2  806.23    5.74   0
  -6  -2  -2  759.30    6.13   0
   7  -2   2 1215.77    6.44   0
  -7  -2  -2 1185.62   13.74   0
  -7  -2  -2 1269.93    7.67   0
  -7  -2  -2 1078.96   13.35   0
  -7   2  -2 1270.38    6.83   0
  -8   2  -2 1061.11    6.27   0
   8  -2   2 1012.87    5.84   0
  -8  -2  -2 1072.20    6.90   0
   9  -2   2 1251.71    6.43   0
  -9  -2  -2 1306.69    7.49   0
  -9   2  -2 1282.94    6.89   0
  10  -2   2  251.93    3.99   0
 -10  -2  -2  252.84    4.25   0
 -10   2  -2  262.54    4.12   0
 -11  -2  -2   36.44    3.44   0
 -11   2  -2   33.76    2.51   0
 -12  -2  -2    6.01    2.43   0
 -12   2  -2    5.96    2.39   0
 -13  -3   2  169.61    7.99   0
 -13  -3   2  183.84    4.16   0
 -13  -3   2  172.17    7.85   0
 -13   3   2  157.23    3.16   0
 -12  -3   2   34.04    3.71   0
 -12  -3   2   30.86    3.36   0
 -12  -3   2   31.74    3.47   0
 -12   3   2   33.87    3.32   0
 -11  -3   2   70.00    3.74   0
 -11   3   2   75.77    2.56   0
 -11  -3   2   74.72    3.40   0
 -11  -3   2   80.41    4.43   0
 -10   3   2  557.43    8.94   0
 -10  -3   2  571.13    6.90   0
 -10  -3   2  591.31    5.29   0
 -10  -3   2  602.40    6.76   0
 -10   3   2  589.93    4.99   0
  -9   3   2   67.77    4.13   0
   9  -3  -2   65.29    3.60   0
  -9  -3   2   68.97    3.25   0
  -9  -3   2   66.66    3.22   0
  -9  -3   2   64.48    2.47   0
  -9   3   2   64.03    2.31   0
  -8  -3   2  118.37    2.81   0
  -8   3   2  118.52    4.43   0
  -8  -3   2  117.09    3.55   0
   8  -3  -2  120.84    4.40   0
  -8  -3   2  122.92    3.65   0
  -8   3   2  128.56    2.64   0
  -7   3   2   17.99    2.70   0
  -7  -3   2   16.90    1.96   0
   7  -3  -2   17.92    2.65   0
  -7   3   2   18.72    2.76   0
  -7  -3   2   17.60    1.97   0
  -7  -3   2   18.84    2.08   0
  -6  -3   2    8.53    2.49   0
  -6  -3   2    9.55    2.48   0
  -6   3   2    7.26    2.52   0
   6  -3  -2    9.36    2.60   0
  -6   3   2    8.21    2.61   0
   6  -3  -2   10.46    2.47   0
  -5   3   2  995.37    6.41   0
   5  -3  -2 1032.28    8.67   0
   5  -3  -2 1020.59    6.51   0
  -5   3   2  937.52    8.35   0
  -5  -3   2  969.28    7.31   0
  -4  -3   2   66.82    2.61   0
   4  -3  -2   66.93    3.26   0
  -4   3   2   71.11    2.50   0
   4  -3  -2   68.84    2.47   0
  -4   3   2   73.95    3.35   0
   3  -3  -2  167.69    4.21   0
   3  -3  -2  185.42    4.11   0
  -3  -3   2  171.74    3.67   0
  -3   3   2  172.09    3.62   0
  -3   3   2  167.58    4.26   0
  -2  -3   2   71.51    3.13   0
  -2   3   2   68.03    2.86   0
   2   3  -2   70.92    3.18   0
   2  -3  -2   69.07    2.80   0
  -2   3   2   74.23    3.59   0
   2  -3  -2   75.18    3.56   0
   1   3  -2 1544.53   11.22   0
  -1   3   2 1605.28   13.78   0
  -1   3   2 1542.21   10.64   0
   1  -3  -2 1523.65   10.29   0
  -1  -3   2 1614.10   11.58   0
   0  -3   2  238.53    4.52   0
   0   3  -2  244.47    4.64   0
   0   3   2  224.43    4.80   0
   0  -3  -2  232.43    4.81   0
   0   3   2  234.87    8.49   0
   1   3   2 1811.64   11.22   0
  -1  -3  -2 1951.55   11.69   0
   1  -3   2 1963.13   13.13   0
   1  -3   2 2028.29   11.09   0
  -1   3  -2 1969.05   10.82   0
   2  -3   2  120.99    4.20   0
   2  -3   2  122.16    3.02   0
  -2  -3  -2  129.68    3.94   0
  -2   3  -2  126.78    3.07   0
   2   3   2  120.68    3.35   0
  -2  -3  -2  128.81    5.99   0
   3  -3   2  669.21    9.33   0
   3   3   2  627.14    6.75   0
  -3  -3  -2  679.05    7.28   0
   3  -3   2  621.76    8.87   0
  -3   3  -2  651.60    5.48   0
   3  -3   2  651.32    5.54   0
  -3  -3  -2  682.43    8.80   0
  -4  -3  -2  811.40    8.01   0
  -4   3  -2  800.57    5.73   0
   4  -3   2  763.16   11.68   0
   4   3   2  764.86    7.69   0
  -4  -3  -2  825.84    8.23   0
   4  -3   2  781.36   11.73   0
   4  -3   2  785.80    5.64   0
  -5  -3  -2  366.00    5.25   0
  -5  -3  -2  361.85    5.77   0
   5  -3   2  351.99    3.85   0
  -5   3  -2  363.09    3.93   0
   5   3   2  346.96    5.60   0
  -6   3  -2   -0.13    2.62   0
   6  -3   2    0.66    1.75   0
  -6  -3  -2    1.17    2.40   0
  -6  -3  -2    0.65    2.68   0
  -7  -3  -2  154.34    4.47   0
  -7   3  -2  161.11    3.47   0
  -7  -3  -2  159.55    3.77   0
  -7  -3  -2  153.07    4.50   0
   7  -3   2  167.04    3.43   0
   8  -3   2    1.85    1.96   0
  -8  -3  -2    1.09    3.28   0
  -8  -3  -2    0.97    3.29   0
  -8  -3  -2    0.95    1.90   0
  -8   3  -2    4.80    2.89   0
   9  -3   2   42.65    3.06   0
  -9   3  -2   48.83    3.21   0
  -9  -3  -2   41.81    5.78   0
  -9  -3  -2   45.37    6.20   0
  -9  -3  -2   43.05    2.36   0
  10  -3   2    7.42    3.00   0
 -10  -3  -2    6.51    2.21   0
 -10   3  -2    6.77    3.07   0
  11  -3   2    2.76    2.16   0
 -11   3  -2    0.47    2.27   0
 -11  -3  -2    2.74    3.13   0
 -12   3  -2    2.16    3.36   0
 -12  -3  -2    2.99    3.41   0
 -13   4   2    7.12    3.47   0
 -13  -4   2    5.11    4.41   0
 -13  -4   2    5.41    4.13   0
 -13  -4   2    9.34    3.40   0
 -12  -4   2   76.03    3.62   0
 -12  -4   2   70.23    3.84   0
 -12   4   2   64.05    2.55   0
 -12  -4   2   72.15    3.96   0
 -11   4   2  201.77    3.12   0
 -11  -4   2  201.84    4.63   0
 -11  -4   2  211.45    4.08   0
 -11  -4   2  201.06    4.51   0
 -10   4   2  352.34    3.68   0
 -10  -4   2  350.81    5.19   0
  10  -4  -2  345.78    7.11   0
 -10  -4   2  361.52    5.34   0
 -10  -4   2  348.37    4.07   0
 -10   4   2  344.05    7.06   0
  -9   4   2  215.78    3.64   0
   9  -4  -2  214.34    4.91   0
  -9  -4   2  219.47    4.33   0
  -9  -4   2  219.49    3.39   0
  -9   4   2  222.19    5.45   0
  -9  -4   2  216.55    4.27   0
  -8  -4   2  441.08    4.89   0
  -8  -4   2  426.36    5.22   0
   8  -4  -2  428.71    6.02   0
  -8   4   2  420.48    6.40   0
  -8   4   2  409.91    3.80   0
  -8  -4   2  407.93    5.11   0
  -7  -4   2 1247.47    7.32   0
   7  -4  -2 1283.50    9.40   0
   7  -4  -2 1320.05    6.73   0
  -7  -4   2 1172.41    7.66   0
  -7   4   2 1199.56    6.28   0
  -7   4   2 1194.93    9.13   0
  -7  -4   2 1232.80    8.09   0
  -6  -4   2 2247.17   10.39   0
  -6  -4   2 2313.80   10.72   0
   6  -4  -2 2409.15   12.46   0
  -6   4   2 2288.19   12.31   0
  -6   4   2 2352.48    9.14   0
   6  -4  -2 2504.43    9.33   0
   5  -4  -2  968.34    6.13   0
  -5   4   2  929.33    7.81   0
  -5  -4   2  959.99    7.17   0
  -5   4   2  933.17    6.08   0
   5  -4  -2  936.13    7.77   0
  -5  -4   2  954.03    7.15   0
   4  -4  -2    6.35    1.75   0
  -4  -4   2    7.07    1.86   0
  -4   4   2    6.40    1.89   0
  -4   4   2    8.40    2.54   0
   4  -4  -2    6.44    1.84   0
  -4  -4   2    6.32    2.61   0
  -3  -4   2  294.66    4.60   0
  -3  -4   2  291.70    4.85   0
   3  -4  -2  280.27    4.67   0
  -3   4   2  286.36    4.79   0
   3  -4  -2  301.82    4.36   0
  -3   4   2  304.39    4.79   0
  -2   4   2   21.76    2.22   0
   2   4  -2   20.73    3.02   0
  -2  -4   2   22.38    2.38   0
  -2   4   2   21.22    2.79   0
  -2  -4   2   20.83    2.01   0
   2  -4  -2   23.32    2.21   0
   2  -4  -2   21.91    2.78   0
   1   4  -2   24.99    3.09   0
   1  -4  -2   25.56    2.52   0
  -1   4   2   26.77    3.23   0
  -1  -4   2   27.66    3.05   0
   1  -4  -2   24.83    2.14   0
  -1   4   2   33.13    2.24   0
  -1  -4   2   25.70    2.80   0
   0  -4  -2   15.87    2.09   0
   0   4   2   15.31    3.17   0
   0  -4   2   15.21    2.18   0
   0  -4   2   15.30    2.08   0
   0   4  -2   16.16    2.24   0
   0   4   2   13.70    2.01   0
   0  -4  -2   16.35    3.81   0
   1  -4   2 1124.34    7.77   0
   1  -4   2 1113.82    8.92   0
  -1   4  -2 1127.10    7.78   0
   1   4   2 1066.54    7.96   0
  -1  -4  -2 1107.30    8.10   0
   2  -4   2   20.15    1.95   0
  -2  -4  -2   19.76    2.73   0
   2  -4   2   19.27    2.71   0
   2   4   2   18.50    2.03   0
  -2   4  -2   20.91    2.72   0
   3  -4   2  517.55    4.78   0
  -3  -4  -2  539.11    9.22   0
   3   4   2  505.45    5.80   0
  -3  -4  -2  521.23    5.63   0
   3  -4   2  527.37    6.99   0
  -3   4  -2  534.11    5.16   0
   4  -4   2   66.95    3.55   0
   4  -4   2   70.01    2.80   0
  -4   4  -2   67.93    2.29   0
  -4  -4  -2   70.23    3.52   0
  -4  -4  -2   67.38    3.11   0
   4   4   2   66.52    3.09   0
  -5  -4  -2  211.95    4.52   0
   5  -4   2  195.16    6.02   0
   5   4   2  195.98    4.16   0
  -5   4  -2  205.81    3.12   0
   5  -4   2  190.75    5.90   0
   5  -4   2  204.01    3.59   0
  -5  -4  -2  200.59    4.21   0
  -6   4  -2  830.99    5.64   0
  -6  -4  -2  844.27    7.24   0
   6  -4   2  825.59    5.62   0
  -6  -4  -2  831.81    7.61   0
  -7   4  -2   43.79    2.21   0
  -7  -4  -2   45.39    3.21   0
  -7  -4  -2   48.63    3.13   0
   7  -4   2   47.58    2.21   0
   8  -4   2  290.94    3.42   0
  -8  -4  -2  309.10    4.59   0
  -8  -4  -2  292.95    5.38   0
  -8   4  -2  301.48    4.01   0
  -8  -4  -2  264.80    5.22   0
   9  -4   2  137.03    2.75   0
  -9  -4  -2  142.18    5.11   0
  -9  -4  -2  145.06    3.82   0
  -9  -4  -2  140.94    5.22   0
  -9   4  -2  144.41    2.79   0
  10  -4   2    8.16    3.10   0
 -10  -4  -2    8.77    5.09   0
 -10   4  -2    7.68    2.24   0
 -10  -4  -2    9.66    2.23   0
 -10  -4  -2    8.79    4.63   0
  11  -4   2   80.26    2.71   0
 -11  -4  -2   93.76    3.78   0
 -11   4  -2   84.33    2.81   0
 -12   4  -2   14.53    3.42   0
 -12  -4  -2    9.72    2.53   0
 -13  -5   2   42.49    4.52   0
 -13  -5   2   43.68    4.41   0
 -13   5   2   39.70    2.66   0
 -13  -5   2   37.52    2.83   0
 -12  -5   2    7.79    4.01   0
 -12  -5   2    7.81    3.24   0
 -12  -5   2    6.06    3.18   0
 -12   5   2    7.44    2.25   0
 -11  -5   2  124.47    3.75   0
 -11   5   2  116.86    2.74   0
 -11   5   2  123.82    6.89   0
 -11  -5   2  123.11    3.96   0
 -11  -5   2  128.44    4.07   0
 -10  -5   2  422.08    5.40   0
  10  -5  -2  419.26    7.22   0
 -10  -5   2  438.05    5.06   0
 -10  -5   2  434.77    5.49   0
 -10   5   2  409.33    3.91   0
 -10   5   2  423.96    7.27   0
   9  -5  -2   13.15    2.96   0
  -9   5   2   14.66    2.74   0
  -9   5   2   12.93    2.90   0
  -9  -5   2   14.20    2.06   0
  -9  -5   2   15.21    2.07   0
  -9  -5   2   12.31    2.86   0
  -8  -5   2  183.22    3.34   0
  -8  -5   2  188.13    3.86   0
   8  -5  -2  198.02    3.51   0
  -8   5   2  184.26    4.32   0
  -8  -5   2  194.85    3.36   0
  -8   5   2  194.44    3.52   0
   8  -5  -2  200.76    4.88   0
  -7  -5   2  317.42    4.48   0
  -7  -5   2  324.93    4.14   0
  -7   5   2  323.07    5.01   0
  -7  -5   2  319.92    4.50   0
   7  -5  -2  311.19    4.56   0
  -7   5   2  312.36    3.47   0
   7  -5  -2  342.96    4.05   0
  -6   5   2   54.30    2.25   0
  -6  -5   2   53.00    2.85   0
  -6  -5   2   52.10    2.82   0
  -6   5   2   52.05    3.04   0
   6  -5  -2   51.40    2.49   0
   6  -5  -2   54.43    2.87   0
  -5   5   2   24.52    2.69   0
  -5  -5   2   21.79    2.72   0
   5  -5  -2   20.18    2.62   0
  -5  -5   2   20.91    1.98   0
  -5   5   2   23.90    2.55   0
   5  -5  -2   24.41    1.90   0
  -4  -5   2  245.79    4.58   0
  -4  -5   2  253.39    4.09   0
  -4   5   2  247.02    3.94   0
  -4   5   2  247.44    3.61   0
   4  -5  -2  239.22    3.83   0
   4  -5  -2  265.74    3.69   0
  -3  -5   2   33.53    2.99   0
  -3   5   2   33.47    2.27   0
  -3   5   2   35.29    2.23   0
   3  -5  -2   33.00    2.19   0
   3  -5  -2   40.00    2.95   0
  -3  -5   2   35.53    2.67   0
   2  -5  -2  320.88    4.32   0
  -2  -5   2  310.22    4.10   0
  -2   5   2  318.72    5.07   0
  -2   5   2  314.29    4.71   0
   2   5  -2  307.56    4.83   0
   2  -5  -2  322.62    4.75   0
  -2  -5   2  352.01    5.38   0
  -1  -5   2  520.67    5.27   0
   1  -5  -2  557.50    7.18   0
   1   5  -2  538.45    6.04   0
  -1  -5   2  574.53    6.37   0
   1  -5  -2  528.55    5.31   0
  -1   5   2  522.19    6.96   0
  -1   5   2  528.25    5.65   0
   0  -5  -2  637.07    9.51   0
   0  -5   2  608.37    5.87   0
   0   5   2  603.64    9.11   0
   0  -5  -2  607.02    5.60   0
   0   5   2  614.39    5.95   0
   0  -5   2  650.26    6.40   0
   0   5  -2  636.71    6.45   0
  -1   5  -2 1009.37    7.08   0
   1  -5   2  984.51    7.77   0
   1   5   2  935.35   22.68   0
  -1  -5  -2 1040.50    7.46   0
   1  -5   2 1007.94    7.26   0
   1   5   2  949.43    7.18   0
   2   5   2  799.17    6.44   0
   2  -5   2  849.49    7.39   0
   2  -5   2  842.53    6.02   0
  -2   5  -2  880.37    6.43   0
  -2  -5  -2  877.31    6.92   0
   3  -5   2  899.99    7.73   0
  -3  -5  -2  962.02   14.54   0
  -3  -5  -2  886.65   14.60   0
  -3  -5  -2  940.43    6.95   0
  -3   5  -2  970.39    6.39   0
   3   5   2  897.51    7.06   0
   3  -5   2  961.27    6.35   0
  -4   5  -2  323.26    4.00   0
   4  -5   2  304.91    5.36   0
   4  -5   2  303.00    3.54   0
  -4  -5  -2  307.47    4.56   0
   4   5   2  302.12    4.48   0
  -4  -5  -2  307.27    6.23   0
  -5  -5  -2  544.55    5.80   0
   5   5   2  472.29    5.15   0
   5  -5   2  497.21    7.05   0
  -5   5  -2  554.81    4.86   0
  -5  -5  -2  549.57    6.95   0
   5  -5   2  522.52    4.35   0
  -6  -5  -2  184.96    4.04   0
   6  -5   2  174.24    5.73   0
  -6   5  -2  187.13    2.92   0
   6  -5   2  177.62    5.80   0
   6  -5   2  183.83    2.86   0
  -6  -5  -2  191.08    4.25   0
  -7   5  -2    7.74    2.03   0
  -7  -5  -2    9.03    2.68   0
  -7  -5  -2    9.21    2.80   0
   7  -5   2    9.14    2.54   0
  -8   5  -2    0.93    2.01   0
  -8  -5  -2   -1.66    2.84   0
  -8  -5  -2    0.75    2.75   0
  -8  -5  -2    0.34    2.74   0
   8  -5   2    3.68    2.81   0
   9  -5   2   11.85    3.02   0
  -9  -5  -2   11.52    3.18   0
  -9  -5  -2   10.09    2.98   0
  -9   5  -2   12.56    3.00   0
  -9  -5  -2   10.66    3.15   0
 -10  -5  -2    9.46    3.13   0
 -10   5  -2   11.51    3.05   0
 -10  -5  -2    9.13    3.87   0
 -10  -5  -2   10.14    3.88   0
  10  -5   2   13.30    2.12   0
  11  -5   2    6.09    2.19   0
 -11   5  -2    3.41    3.19   0
 -11  -5  -2    5.20    5.91   0
 -11  -5  -2    5.13    5.42   0
 -11  -5  -2    5.34    3.39   0
 -12  -6   2    1.37    3.32   0
 -12  -6   2    2.11    2.27   0
 -12   6   2    4.66    2.32   0
 -12  -6   2    0.53    3.12   0
 -11   6   2   88.88    2.69   0
  11  -6  -2   86.22    5.55   0
 -11  -6   2   88.05    3.74   0
 -11  -6   2   91.27    3.63   0
 -11  -6   2   89.71    3.62   0
 -11   6   2   88.98    5.63   0
 -10  -6   2   70.63    2.68   0
  10  -6  -2   69.73    3.72   0
 -10  -6   2   68.67    2.67   0
 -10  -6   2   74.78    3.42   0
 -10   6   2   70.39    3.76   0
 -10   6   2   75.37    3.29   0
  -9   6   2  153.38    4.20   0
  -9  -6   2  159.21    3.79   0
   9  -6  -2  172.61    3.41   0
  -9  -6   2  148.12    3.10   0
  -9  -6   2  155.58    3.20   0
   9  -6  -2  156.54    4.75   0
  -9   6   2  152.35    2.82   0
   8  -6  -2    9.42    3.03   0
  -8   6   2    9.89    2.76   0
  -8  -6   2   10.21    2.83   0
   8  -6  -2   11.49    1.90   0
  -8  -6   2    9.87    2.69   0
  -8  -6   2   10.66    2.82   0
  -8   6   2   11.76    2.68   0
  -7   6   2  870.32    5.60   0
  -7  -6   2  828.59    5.83   0
   7  -6  -2  890.88    5.25   0
  -7  -6   2  838.27    6.26   0
   7  -6  -2  860.54    7.30   0
  -7   6   2  860.39    7.26   0
   6  -6  -2  512.55    4.65   0
   6  -6  -2  468.03    5.51   0
  -6  -6   2  491.47    4.93   0
  -6   6   2  461.83    4.15   0
  -6   6   2  465.89    5.52   0
  -6  -6   2  487.75    4.93   0
  -6  -6   2  472.49    5.68   0
  -5  -6   2   59.30    3.22   0
  -5   6   2   62.21    3.04   0
   5  -6  -2   58.71    2.92   0
   5  -6  -2   63.49    2.24   0
  -5   6   2   60.02    2.86   0
  -5  -6   2   59.63    2.33   0
  -4  -6   2 1142.71    7.14   0
   4  -6  -2 1173.83    6.95   0
  -4   6   2 1107.99    6.74   0
  -4   6   2 1108.79    7.27   0
   4  -6  -2 1124.90    7.48   0
  -4  -6   2 1161.20    8.49   0
  -3   6   2  278.78    4.34   0
   3  -6  -2  279.49    4.03   0
  -3  -6   2  294.96    4.83   0
  -3  -6   2  275.61    4.09   0
   3  -6  -2  280.42    4.22   0
  -3   6   2  269.86    3.85   0
   2   6  -2   81.72    2.84   0
  -2  -6   2   91.94    3.34   0
  -2  -6   2   82.27    2.46   0
   2  -6  -2   80.61    2.61   0
   2  -6  -2   85.87    2.75   0
  -2   6   2   82.98    3.15   0
  -2   6   2   82.25    3.15   0
   1   6  -2  392.59    5.29   0
  -1   6   2  394.41    5.77   0
  -1  -6   2  381.84    4.32   0
  -1  -6   2  450.13    5.48   0
  -1   6   2  379.84    4.66   0
   1  -6  -2  384.79    4.36   0
   1  -6  -2  404.46    5.91   0
   0  -6  -2  396.72    6.92   0
   0  -6   2  400.54    5.08   0
   0   6   2  373.68    4.57   0
   0   6  -2  388.08    4.72   0
   0  -6  -2  400.69    4.70   0
   0   6   2  370.52    6.60   0
   0  -6   2  379.99    4.41   0
  -1   6  -2   14.17    2.71   0
  -1  -6  -2   15.33    4.10   0
   1   6   2   15.19    4.31   0
   1  -6   2   14.87    2.03   0
  -1  -6  -2   14.59    1.95   0
   1  -6   2   15.62    1.98   0
  -1   6  -2   19.66    2.80   0
   1   6   2   14.97    2.64   0
  -2  -6  -2   92.41    3.23   0
   2  -6   2   90.66    3.28   0
   2   6   2   86.20    3.15   0
  -2   6  -2   93.44    3.14   0
  -2   6  -2   87.84    3.28   0
   2  -6   2   88.18    2.53   0
   3  -6   2    6.32    2.40   0
  -3   6  -2    6.33    1.80   0
  -3  -6  -2    7.47    1.84   0
  -3  -6  -2    6.60    5.14   0
   3   6   2    4.68    1.87   0
   3  -6   2    6.30    2.47   0
  -4  -6  -2   99.87    5.40   0
   4  -6   2   98.78    3.49   0
  -4   6  -2  105.84    3.07   0
   4  -6   2  102.93    3.00   0
  -4  -6  -2  106.82    3.22   0
   4   6   2   93.28    2.62   0
  -4  -6  -2  106.12    5.23   0
   5  -6   2  535.78    4.67   0
  -5  -6  -2  526.17    5.48   0
  -5  -6  -2  524.51    7.39   0
   5  -6   2  504.30    6.37   0
   5   6   2  491.54    5.41   0
  -5   6  -2  552.88    4.74   0
  -6  -6  -2  559.46    6.89   0
   6   6   2  511.24    5.45   0
   6  -6   2  522.49    7.40   0
   6  -6   2  540.48    4.22   0
  -6   6  -2  538.40    4.23   0
  -6  -6  -2  549.43    5.59   0
   7  -6   2   84.36    5.24   0
  -7  -6  -2   84.62    3.56   0
   7  -6   2   90.58    3.02   0
  -7   6  -2   86.01    3.12   0
  -7  -6  -2   82.07    3.44   0
   7  -6   2   80.77    5.05   0
   8  -6   2  142.76    3.49   0
  -8   6  -2  139.10    3.56   0
  -8  -6  -2  139.88    3.95   0
  -8  -6  -2  145.77    4.00   0
  -9  -6  -2   13.10    3.12   0
  -9   6  -2   11.92    2.24   0
  -9  -6  -2   13.64    3.10   0
   9  -6   2   16.77    3.03   0
  -9  -6  -2   13.85    3.14   0
 -10  -6  -2    1.35    2.25   0
 -10  -6  -2    0.23    3.22   0
 -10   6  -2   -1.91    2.33   0
 -10  -6  -2    0.56    3.22   0
  10  -6   2    1.99    2.21   0
 -11  -6  -2  110.12    5.45   0
  11  -6   2  126.72    3.73   0
 -11  -6  -2  114.03    5.40   0
 -11  -6  -2  115.17    4.15   0
 -11   6  -2  113.91    2.91   0
 -12  -7   2    0.63    3.17   0
 -12  -7   2    3.16    3.35   0
 -12  -7   2    2.39    3.32   0
 -12   7   2   -0.27    2.37   0
 -11   7   2  165.20    2.96   0
 -11  -7   2  181.15    4.28   0
 -11   7   2  169.45    5.70   0
  11  -7  -2  159.03    5.64   0
 -11  -7   2  175.98    4.13   0
 -11  -7   2  182.47    4.23   0
 -10  -7   2  532.32    5.08   0
 -10  -7   2  515.01    5.04   0
  10  -7  -2  518.66    6.77   0
 -10   7   2  521.44    6.82   0
 -10   7   2  518.34    4.16   0
 -10  -7   2  508.28    4.93   0
  -9  -7   2  457.27    5.07   0
   9  -7  -2  467.24    6.02   0
  -9  -7   2  469.75    5.08   0
  -9   7   2  458.62    5.97   0
  -9  -7   2  481.06    5.35   0
   9  -7  -2  466.46    3.95   0
  -9   7   2  479.28    4.51   0
   8  -7  -2  338.09    5.13   0
  -8  -7   2  343.05    4.43   0
  -8   7   2  346.43    4.03   0
   8  -7  -2  352.76    3.51   0
  -8  -7   2  352.43    5.04   0
  -8   7   2  338.46    5.03   0
  -8  -7   2  357.64    4.87   0
  -8  -7   2  331.36    3.97   0
  -7   7   2  131.89    2.65   0
   7  -7  -2  147.47    3.27   0
  -7  -7   2  130.92    2.82   0
  -7   7   2  133.25    3.63   0
  -7  -7   2  135.32    2.86   0
  -7  -7   2  138.42    3.74   0
   7  -7  -2  131.38    3.08   0
   6  -7  -2  293.36    3.45   0
   6  -7  -2  274.69    4.37   0
  -6  -7   2  280.24    4.18   0
  -6   7   2  281.87    4.46   0
  -6  -7   2  278.95    3.58   0
  -6   7   2  289.99    3.95   0
  -5  -7   2   21.36    2.18   0
   5  -7  -2   23.16    2.63   0
  -5   7   2   19.79    2.70   0
  -5   7   2   19.74    2.73   0
  -5  -7   2   20.64    1.91   0
   5  -7  -2   22.86    2.00   0
  -4   7   2   17.60    1.99   0
  -4  -7   2   19.26    2.06   0
  -4  -7   2   20.55    2.59   0
   4  -7  -2   21.15    2.70   0
  -4   7   2   18.89    1.98   0
   4  -7  -2   16.84    2.59   0
   3  -7  -2    2.06    2.55   0
  -3  -7   2    2.93    2.31   0
  -3   7   2    1.64    2.50   0
  -3   7   2    1.49    1.81   0
   3   7  -2    1.68    1.82   0
   3  -7  -2    2.22    1.79   0
  -3  -7   2    2.87    2.60   0
   2  -7  -2    2.00    1.74   0
   2  -7  -2    1.94    2.42   0
  -2   7   2    2.23    2.47   0
  -2   7   2    1.34    1.70   0
  -2  -7   2    1.55    1.88   0
   2   7  -2    1.47    1.80   0
  -2  -7   2    1.33    1.71   0
   1   7  -2  144.42    3.83   0
  -1  -7   2  135.82    2.82   0
  -1   7   2  140.80    3.36   0
   1  -7  -2  142.79    3.41   0
  -1   7   2  133.85    3.31   0
   1  -7  -2  148.45    3.35   0
  -1  -7   2  149.75    3.73   0
   0  -7   2 2382.18    9.88   0
   0   7   2 2182.92    9.13   0
   0   7  -2 2315.95    9.86   0
   0   7  -2 2329.31   10.38   0
   0  -7  -2 2340.08    9.59   0
   0  -7   2 2407.49   10.63   0
   0   7   2 2293.54   14.22   0
   0  -7  -2 2392.65   14.66   0
  -1  -7  -2 1955.79    8.80   0
   1  -7   2 1852.99    9.12   0
   1   7   2 1818.71    8.50   0
  -1  -7  -2 1862.87   16.35   0
  -1   7  -2 1868.10    8.73   0
   1   7   2 1811.54   16.72   0
   1  -7   2 1898.83    8.94   0
  -1   7  -2 1869.20    9.18   0
   2   7   2 2705.06   10.08   0
   2  -7   2 2917.53   10.42   0
  -2  -7  -2 2923.86   10.75   0
  -2   7  -2 2851.13   11.45   0
  -2   7  -2 2959.59   10.49   0
   2  -7   2 2768.43   11.00   0
   3  -7   2 3537.12   13.20   0
  -3  -7  -2 3511.20   11.45   0
  -3   7  -2 3529.86   10.91   0
  -3   7  -2 3498.82   13.17   0
   3  -7   2 3505.25   10.76   0
   3   7   2 3524.80   11.77   0
  -4  -7  -2  858.42    5.94   0
   4   7   2  836.14    6.11   0
  -4  -7  -2  903.42   14.48   0
  -4   7  -2  875.04    5.73   0
  -4  -7  -2  858.18   14.44   0
   4  -7   2  862.72    5.65   0
   4  -7   2  845.56    6.77   0
  -5  -7  -2  594.31    5.09   0
  -5   7  -2  615.06    4.92   0
   5   7   2  573.77    5.40   0
  -5  -7  -2  599.93    9.69   0
   5  -7   2  590.58    6.32   0
   5  -7   2  586.52    4.39   0
  -5  -7  -2  616.12    9.24   0
   6  -7   2  337.19    3.97   0
   6  -7   2  311.83    5.31   0
  -6   7  -2  320.70    3.53   0
  -6  -7  -2  347.70    4.61   0
  -6  -7  -2  345.50    6.41   0
   6   7   2  313.09    4.52   0
  -7  -7  -2   28.25    3.11   0
   7  -7   2   26.79    3.66   0
   7  -7   2   26.15    3.69   0
  -7   7  -2   27.62    2.94   0
   7  -7   2   28.00    1.96   0
  -7  -7  -2   26.42    2.96   0
   8  -7   2   16.32    5.05   0
  -8  -7  -2   18.11    3.04   0
   8  -7   2   15.14    2.19   0
  -8   7  -2   19.39    2.98   0
   8  -7   2   16.82    5.05   0
  -8  -7  -2   17.90    2.97   0
   9  -7   2  227.54    3.89   0
  -9   7  -2  209.68    3.94   0
  -9  -7  -2  209.14    4.48   0
  -9  -7  -2  213.21    4.52   0
  -9  -7  -2  222.62    4.69   0
 -10  -7  -2  208.88    4.85   0
 -10  -7  -2  229.69    4.78   0
 -10  -7  -2  200.33    4.76   0
  10  -7   2  228.60    3.30   0
 -10   7  -2  220.87    4.02   0
 -11  -7  -2   91.30    4.09   0
 -11  -7  -2   85.88    4.31   0
  11  -7   2   96.85    3.59   0
 -11  -7  -2   86.41    4.22   0
 -11   7  -2   88.97    2.81   0
 -12  -8   2   89.69    4.14   0
 -12   8   2   82.88    2.79   0
 -12  -8   2   91.41    3.97   0
  12  -8  -2   84.01    7.70   0
 -12  -8   2   94.00    4.00   0
 -12  -8   2   80.82    3.33   0
 -11  -8   2    4.36    3.24   0
 -11   8   2    4.71    3.93   0
 -11  -8   2    3.49    2.37   0
  11  -8  -2    3.28    3.91   0
 -11  -8   2    1.30    3.13   0
 -11   8   2    5.18    3.06   0
 -11  -8   2    4.38    3.40   0
  10  -8  -2   42.73    2.34   0
 -10   8   2   44.73    2.36   0
 -10  -8   2   44.89    2.49   0
 -10  -8   2   43.66    2.65   0
  10  -8  -2   45.41    3.46   0
 -10  -8   2   45.29    2.60   0
 -10   8   2   45.25    3.54   0
 -10  -8   2   44.51    3.34   0
   9  -8  -2   14.83    2.90   0
  -9  -8   2   10.58    3.01   0
  -9  -8   2   12.18    2.92   0
  -9   8   2    9.98    3.10   0
  -9  -8   2   11.99    2.28   0
  -9   8   2   10.68    2.09   0
  -9  -8   2   10.98    3.02   0
   9  -8  -2   12.23    3.02   0
   8  -8  -2   32.73    2.16   0
  -8  -8   2   35.49    2.94   0
  -8  -8   2   32.83    2.35   0
  -8   8   2   30.51    2.35   0
   8  -8  -2   29.53    2.32   0
  -8  -8   2   33.08    2.38   0
  -8   8   2   35.66    2.91   0
  -8  -8   2   31.80    2.16   0
  -7   8   2  125.52    2.78   0
  -7  -8   2  122.05    2.76   0
  -7  -8   2  127.88    2.81   0
   7  -8  -2  126.03    3.56   0
   7  -8  -2  143.83    3.41   0
  -7   8   2  130.35    3.76   0
  -7  -8   2  128.50    3.78   0
  -6   8   2  373.24    4.67   0
   6  -8  -2  384.21    3.82   0
  -6  -8   2  370.11    5.12   0
  -6  -8   2  376.96    4.31   0
  -6   8   2  361.61    3.76   0
   6  -8  -2  358.74    4.62   0
  -5   8   2  492.74    5.03   0
   5  -8  -2  463.56    4.54   0
  -5  -8   2  487.87    4.35   0
   5  -8  -2  502.89    4.44   0
  -5  -8   2  511.82    5.90   0
  -5   8   2  490.73    4.80   0
  -4  -8   2 1148.33    8.23   0
  -4  -8   2 1065.34    6.09   0
   4  -8  -2 1177.87    6.88   0
  -4   8   2 1052.21    6.28   0
   4  -8  -2 1052.99    6.39   0
  -4   8   2 1043.78    6.71   0
  -3  -8   2  521.59    4.46   0
  -3  -8   2  554.35    5.64   0
   3   8  -2  520.17    5.98   0
   3  -8  -2  560.97    5.39   0
   3  -8  -2  536.53    5.03   0
  -3   8   2  516.36    5.01   0
  -3   8   2  505.87    4.82   0
   2   8  -2 1312.54    8.56   0
  -2  -8   2 1337.22    6.82   0
  -2   8   2 1295.54    7.03   0
  -2   8   2 1343.02    8.27   0
   2  -8  -2 1388.60    8.24   0
  -2  -8   2 1453.31    8.76   0
   2  -8  -2 1356.33    7.07   0
  -1  -8   2 1276.58    7.94   0
  -1  -8   2 1249.59    6.94   0
   1  -8  -2 1207.62    6.67   0
  -1   8   2 1230.47    8.70   0
   1   8  -2 1252.85    8.03   0
  -1   8   2 1163.26    6.45   0
   1  -8  -2 1298.10    9.04   0
   0   8   2   95.86    3.73   0
   0   8   2   86.94    2.37   0
   0   8  -2   88.59    2.46   0
   0   8  -2   98.00    2.77   0
   0  -8   2   99.43    3.24   0
   0  -8  -2   97.44    2.95   0
   0  -8  -2  100.05    3.78   0
   0  -8   2   93.34    2.45   0
  -1  -8  -2   20.27    3.46   0
  -1   8  -2   20.03    1.96   0
   1   8   2   20.96    3.57   0
   1  -8   2   18.00    1.92   0
  -1  -8  -2   17.84    2.53   0
  -1   8  -2   20.13    2.04   0
   1  -8   2   22.35    2.67   0
   1   8   2   21.97    2.53   0
  -2   8  -2   87.82    3.09   0
  -2   8  -2   76.30    2.52   0
   2  -8   2   81.83    3.01   0
  -2  -8  -2   84.91    5.65   0
  -2  -8  -2   85.33    3.03   0
   2   8   2   78.28    2.39   0
   2  -8   2   80.56    2.43   0
  -3  -8  -2  177.77    3.00   0
  -3   8  -2  174.76    3.31   0
  -3   8  -2  184.46    3.04   0
   3   8   2  172.30    3.05   0
   3  -8   2  177.97    3.29   0
   3  -8   2  186.02    3.56   0
   4  -8   2  456.04    5.22   0
   4   8   2  436.30    4.65   0
  -4  -8  -2  455.02    4.30   0
  -4   8  -2  449.25    4.05   0
   4  -8   2  466.88    4.51   0
   5  -8   2  667.90    6.38   0
  -5  -8  -2  700.43   12.18   0
  -5  -8  -2  718.70   12.17   0
  -5   8  -2  690.21    5.13   0
   5   8   2  649.82    5.52   0
  -5  -8  -2  687.20    5.28   0
   5  -8   2  675.80    4.62   0
   6  -8   2  223.96    3.62   0
  -6  -8  -2  219.17    6.27   0
  -6   8  -2  218.69    3.64   0
   6   8   2  207.18    3.90   0
   6  -8   2  202.12    4.29   0
  -6  -8  -2  222.49    3.93   0
  -6  -8  -2  227.84    6.13   0
  -7  -8  -2  825.56    8.93   0
   7  -8   2  771.04    7.82   0
  -7  -8  -2  845.68    6.45   0
  -7  -8  -2  806.46    9.56   0
  -7   8  -2  845.91    5.49   0
   7  -8   2  846.96    5.45   0
   8  -8   2  456.35    4.48   0
  -8  -8  -2  434.25    6.62   0
  -8   8  -2  470.95    4.64   0
  -8  -8  -2  470.15    7.01   0
   8  -8   2  422.00    7.45   0
   8  -8   2  438.09    7.70   0
  -8  -8  -2  457.43    5.31   0
  -9  -8  -2  411.07    5.40   0
   9  -8   2  422.21    3.88   0
  -9  -8  -2  377.80    4.66   0
  -9   8  -2  430.58    4.53   0
  -9  -8  -2  433.21    6.21   0
 -10  -8  -2  412.49    6.19   0
  10  -8   2  416.11    4.57   0
 -10  -8  -2  363.49    5.60   0
 -10  -8  -2  390.77    6.24   0
 -10   8  -2  386.06    4.03   0
 -11  -8  -2  105.49    5.21   0
 -11  -8  -2  109.32    4.53   0
  11  -8   2  107.55    2.93   0
 -11   8  -2  105.63    3.96   0
 -11  -8  -2  120.26    4.57   0
 -11  -9   2  105.61    3.90   0
  11  -9  -2  103.72    4.92   0
 -11  -9   2  107.77    4.01   0
 -11  -9   2  100.86    3.78   0
 -11  -9   2  102.62    4.08   0
 -11   9   2  104.60    3.67   0
 -11   9   2   97.59    4.30   0
  10  -9  -2  330.45    3.60   0
 -10  -9   2  302.36    4.54   0
 -10  -9   2  310.62    4.98   0
 -10  -9   2  323.76    4.97   0
 -10   9   2  289.09    5.27   0
 -10   9   2  307.59    4.18   0
 -10  -9   2  296.34    3.96   0
  10  -9  -2  302.24    5.39   0
  -9  -9   2  105.43    2.77   0
   9  -9  -2  123.73    3.37   0
  -9   9   2  101.15    3.17   0
   9  -9  -2  109.01    3.87   0
  -9  -9   2  108.54    3.79   0
  -9   9   2  102.50    2.64   0
  -9  -9   2  106.24    2.81   0
  -9  -9   2  117.12    3.90   0
   8  -9  -2   50.38    2.24   0
  -8   9   2   44.15    3.22   0
  -8   9   2   47.39    2.36   0
   8  -9  -2   45.95    2.53   0
  -8  -9   2   46.64    2.95   0
  -8  -9   2   48.37    3.15   0
  -8  -9   2   45.34    3.27   0
  -7  -9   2  282.47    3.97   0
  -7   9   2  262.69    4.33   0
   7  -9  -2  277.34    3.40   0
  -7   9   2  260.08    3.36   0
   7  -9  -2  262.50    4.29   0
  -7  -9   2  278.90    4.75   0
   6  -9  -2   11.61    2.78   0
  -6   9   2    9.65    1.93   0
  -6  -9   2    7.94    1.85   0
  -6   9   2    9.79    2.75   0
  -6  -9   2   11.89    2.92   0
   6  -9  -2    8.89    2.67   0
   5  -9  -2   22.94    2.00   0
  -5   9   2   20.46    2.03   0
  -5  -9   2   22.72    1.95   0
  -5   9   2   25.07    2.78   0
  -5  -9   2   24.92    2.95   0
   5  -9  -2   24.02    2.07   0
  -4  -9   2   25.27    2.01   0
  -4   9   2   22.15    1.94   0
   4  -9  -2   22.92    1.97   0
  -4  -9   2   23.07    2.21   0
   4  -9  -2   25.89    2.73   0
  -4   9   2   24.43    2.84   0
   3   9  -2   20.88    2.99   0
  -3  -9   2   19.94    2.78   0
  -3   9   2   22.26    2.64   0
   3  -9  -2   21.14    2.63   0
  -3  -9   2   19.31    1.90   0
   3  -9  -2   20.92    2.65   0
  -3   9   2   17.41    1.93   0
  -2   9   2  114.58    2.67   0
   2   9  -2  120.38    3.53   0
  -2   9   2  127.60    3.42   0
  -2  -9   2  131.16    3.46   0
  -2  -9   2  120.65    2.58   0
   2  -9  -2  125.45    3.28   0
   2  -9  -2  131.56    3.45   0
  -1   9   2  806.10    5.31   0
   1   9  -2  804.69    5.40   0
   1   9  -2  858.56    6.59   0
  -1  -9   2  881.13    5.81   0
   1  -9  -2  879.87    5.85   0
   1  -9  -2  872.73    7.32   0
  -1   9   2  844.28    7.17   0
  -1  -9   2  847.43    6.19   0
   0  -9  -2  487.97    4.59   0
   0   9  -2  456.29    4.28   0
   0  -9  -2  507.99    6.40   0
   0   9  -2  476.22    4.63   0
   0   9   2  494.99    6.34   0
   0  -9   2  483.29    4.62   0
   0  -9   2  486.02    4.72   0
   0   9   2  451.91    4.10   0
  -1  -9  -2  343.46    6.49   0
   1  -9   2  336.98    4.20   0
   1   9   2  340.29    6.32   0
   1   9   2  319.87    4.02   0
  -1   9  -2  345.00    4.32   0
  -1  -9  -2  341.83    4.08   0
  -1   9  -2  312.46    3.75   0
   1  -9   2  331.27    4.06   0
  -2  -9  -2  817.15    5.65   0
  -2   9  -2  745.34    5.42   0
   2   9   2  750.77    5.18   0
   2  -9   2  798.49    5.80   0
   2  -9   2  786.00    5.37   0
  -2   9  -2  810.56    5.70   0
  -2  -9  -2  757.95   11.26   0
  -3   9  -2  359.10    4.25   0
   3  -9   2  367.63    4.44   0
  -3  -9  -2  357.74    4.26   0
   3   9   2  345.40    4.21   0
   3  -9   2  349.53    3.68   0
  -3   9  -2  337.59    4.04   0
   4  -9   2   14.97    1.88   0
   4   9   2   14.48    2.69   0
  -4   9  -2   15.64    1.91   0
   4  -9   2   18.66    2.66   0
  -4  -9  -2   15.99    2.61   0
   5  -9   2  352.11    5.02   0
  -5   9  -2  339.11    3.55   0
   5  -9   2  357.14    4.12   0
  -5  -9  -2  347.05    4.35   0
   5   9   2  328.05    4.28   0
  -6   9  -2    4.18    2.86   0
  -6  -9  -2    4.51    4.17   0
   6   9   2    5.01    2.83   0
   6  -9   2    7.45    2.69   0
  -6  -9  -2    5.00    4.55   0
  -6  -9  -2    4.81    2.76   0
   6  -9   2    5.84    2.82   0
   7  -9   2  141.69    4.06   0
  -7  -9  -2  154.18    5.85   0
  -7   9  -2  167.95    3.54   0
   7  -9   2  160.01    3.43   0
  -7  -9  -2  160.70    6.15   0
  -7  -9  -2  161.28    3.85   0
   8  -9   2   30.53    3.36   0
  -8  -9  -2   35.11    3.21   0
  -8  -9  -2   35.75    4.30   0
   8  -9   2   35.43    2.25   0
   8  -9   2   36.37    4.16   0
  -8  -9  -2   38.19    4.18   0
  -8   9  -2   38.17    2.33   0
  -9   9  -2    3.75    2.22   0
   9  -9   2    2.91    5.14   0
   9  -9   2    4.55    3.21   0
  -9  -9  -2    3.43    3.90   0
   9  -9   2    3.22    4.56   0
  -9  -9  -2    1.05    3.17   0
  -9  -9  -2    2.97    3.82   0
 -10   9  -2  269.65    4.37   0
 -10  -9  -2  273.57    6.26   0
 -10  -9  -2  258.21    5.78   0
  10  -9   2  260.77    3.57   0
 -10  -9  -2  271.98    5.00   0
 -10  -9  -2  249.04    4.89   0
 -11  10   2   93.11    4.34   0
 -11 -10   2   91.60    3.00   0
  11 -10  -2   93.74    4.22   0
 -11  10   2   88.66    2.81   0
 -11 -10   2  103.12    4.05   0
 -11 -10   2   99.20    3.89   0
 -11 -10   2   91.28    4.09   0
 -10  10   2   91.10    3.99   0
 -10 -10   2   89.37    2.93   0
  10 -10  -2   87.69    3.88   0
 -10 -10   2   85.85    3.21   0
 -10  10   2   93.13    2.71   0
 -10 -10   2   94.84    3.66   0
  10 -10  -2  108.54    3.43   0
 -10 -10   2   92.89    3.95   0
   9 -10  -2    0.18    2.22   0
   9 -10  -2    0.96    2.07   0
  -9 -10   2    1.23    2.04   0
  -9 -10   2   -0.18    3.06   0
  -9 -10   2    0.98    3.13   0
  -9  10   2    0.49    3.09   0
  -9 -10   2    0.34    2.95   0
  -9  10   2    4.28    3.04   0
  -8  10   2   68.18    2.49   0
   8 -10  -2   60.86    2.63   0
  -8 -10   2   62.83    3.19   0
  -8  10   2   69.21    3.37   0
  -8 -10   2   65.89    2.42   0
   8 -10  -2   69.41    2.50   0
  -8 -10   2   70.06    3.51   0
   7 -10  -2   65.64    3.07   0
  -7  10   2   55.90    2.35   0
  -7 -10   2   59.18    3.35   0
   7 -10  -2   55.97    2.45   0
  -7  10   2   57.87    2.41   0
  -7 -10   2   55.69    2.35   0
   6 -10  -2  277.18    3.47   0
  -6  10   2  259.24    4.12   0
   6 -10  -2  251.59    3.52   0
  -6 -10   2  273.68    3.81   0
  -6  10   2  258.81    3.36   0
  -6 -10   2  273.50    4.24   0
   5 -10  -2  165.45    3.69   0
  -5  10   2  159.62    2.91   0
  -5 -10   2  156.50    2.79   0
  -5  10   2  155.28    3.50   0
  -5 -10   2  174.05    4.12   0
   5 -10  -2  171.10    2.95   0
   4 -10  -2    2.14    2.63   0
  -4 -10   2    1.27    2.60   0
  -4 -10   2    0.87    2.69   0
   4 -10  -2    0.39    1.84   0
  -4  10   2    1.56    1.87   0
  -4  10   2    2.09    2.66   0
  -3 -10   2  115.61    3.54   0
   3 -10  -2  116.32    3.27   0
  -3  10   2  106.17    3.22   0
   3  10  -2  107.65    3.68   0
  -3  10   2  106.07    3.23   0
  -3 -10   2  109.52    2.42   0
   3 -10  -2  112.95    2.63   0
  -2 -10   2   67.98    2.56   0
  -2 -10   2   62.76    2.17   0
   2  10  -2   62.23    3.28   0
  -2  10   2   64.77    2.28   0
  -2  10   2   62.20    2.45   0
   2 -10  -2   67.30    3.16   0
   2 -10  -2   64.15    2.89   0
  -1 -10   2   12.99    2.55   0
   1  10  -2   11.99    1.84   0
  -1  10   2   11.40    2.54   0
   1  10  -2   12.21    2.77   0
  -1  10   2   12.05    2.03   0
   1 -10  -2   13.85    1.91   0
  -1 -10   2   11.51    1.80   0
   1 -10  -2   12.04    2.70   0
   0  10  -2   52.68    2.25   0
   0 -10   2   56.59    2.84   0
   0  10  -2   54.50    3.01   0
   0  10   2   54.49    2.72   0
   0 -10   2   57.80    2.83   0
   0 -10  -2   52.36    2.71   0
   0  10   2   54.86    3.19   0
   0 -10  -2   52.54    2.49   0
   1  10   2  123.10    2.57   0
   1  10   2  128.59    4.28   0
  -1  10  -2  132.28    3.33   0
   1 -10   2  131.78    2.72   0
   1 -10   2  133.48    3.33   0
  -1 -10  -2  130.36    2.66   0
  -1 -10  -2  138.24    4.58   0
  -1  10  -2  139.49    3.40   0
  -2 -10  -2    3.22    3.33   0
   2  10   2    7.82    1.86   0
   2 -10   2    3.71    2.55   0
  -2 -10  -2    4.21    1.84   0
  -2  10  -2    3.41    1.93   0
  -2  10  -2    2.56    2.58   0
   2 -10   2    3.39    2.61   0
  -3  10  -2  273.22    3.91   0
   3 -10   2  260.47    3.27   0
   3  10   2  242.78    3.22   0
  -3  10  -2  250.33    3.48   0
   3 -10   2  257.88    3.53   0
  -3 -10  -2  264.41    3.36   0
   4 -10   2   70.57    3.01   0
   4  10   2   60.64    2.28   0
   4 -10   2   67.86    3.05   0
  -4  10  -2   69.90    3.15   0
  -4 -10  -2   67.75    2.33   0
  -5 -10  -2   45.32    2.92   0
   5 -10   2   44.71    2.23   0
   5  10   2   40.66    2.18   0
  -5  10  -2   40.74    2.20   0
   5 -10   2   43.86    3.04   0
  -6  10  -2  255.15    3.85   0
   6  10   2  220.53    3.93   0
   6 -10   2  229.10    4.31   0
  -6 -10  -2  239.63    3.39   0
   6 -10   2  254.66    3.73   0
   7 -10   2  395.24    4.34   0
  -7 -10  -2  401.08    4.76   0
  -7  10  -2  405.87    4.41   0
   7 -10   2  367.94    5.36   0
   8 -10   2  235.83    3.19   0
  -8 -10  -2  238.40    8.60   0
   8 -10   2  207.73    4.82   0
  -8  10  -2  233.51    3.28   0
  -8 -10  -2  239.77    8.39   0
  -8 -10  -2  232.24    3.62   0
   9 -10   2   50.27    3.31   0
   9 -10   2   51.89    4.74   0
  -9  10  -2   52.75    2.55   0
  -9 -10  -2   52.52    5.56   0
   9 -10   2   44.70    3.85   0
  -9 -10  -2   51.62    3.51   0
  -9 -10  -2   52.00    4.88   0
 -10  10  -2  100.48    2.92   0
 -10 -10  -2  111.31    5.71   0
 -10 -10  -2   93.37    3.22   0
 -10 -10  -2  102.61    3.98   0
 -10 -10  -2  105.82    5.89   0
  10 -10   2  101.93    2.90   0
 -11 -11   2  131.11    4.45   0
  11 -11  -2  122.01    4.58   0
 -11 -11   2  129.62    4.02   0
 -11 -11   2  136.65    4.53   0
 -11  11   2  123.11    3.22   0
 -11  11   2  128.79    4.64   0
 -11 -11   2  128.12    4.08   0
 -10 -11   2  242.79    4.27   0
  10 -11  -2  232.79    4.84   0
 -10 -11   2  242.13    4.32   0
  10 -11  -2  239.73    4.13   0
 -10  11   2  231.25    4.78   0
 -10  11   2  244.90    4.17   0
 -10 -11   2  230.60    4.92   0
 -10 -11   2  243.90    5.04   0
  -9 -11   2  121.51    4.08   0
   9 -11  -2  119.87    2.82   0
  -9  11   2  110.59    2.86   0
   9 -11  -2  113.75    3.92   0
  -9 -11   2  124.92    4.10   0
  -9  11   2  115.69    3.85   0
  -9 -11   2  118.60    2.86   0
  -9 -11   2  114.31    2.92   0
   8 -11  -2    9.66    3.06   0
  -8 -11   2   10.08    2.07   0
   8 -11  -2   11.72    3.11   0
  -8 -11   2   11.72    3.23   0
  -8  11   2    9.94    2.23   0
  -8 -11   2   10.38    2.17   0
  -8  11   2    9.98    2.23   0
   7 -11  -2    7.62    2.90   0
  -7 -11   2    5.77    2.81   0
  -7  11   2    7.27    2.92   0
   7 -11  -2    7.39    2.83   0
  -7 -11   2    5.67    2.94   0
  -7  11   2    4.85    2.12   0
  -6  11   2  117.51    2.81   0
  -6 -11   2  120.67    2.71   0
   6 -11  -2  123.13    3.49   0
   6 -11  -2  128.20    2.70   0
  -6 -11   2  132.24    3.91   0
  -6  11   2  120.91    2.73   0
  -5 -11   2  135.35    3.36   0
  -5  11   2  124.73    3.36   0
   5 -11  -2  126.49    3.40   0
  -5 -11   2  139.78    3.83   0
  -5  11   2  131.03    3.38   0
   5 -11  -2  135.70    2.79   0
  -4 -11   2  906.59    7.21   0
   4 -11  -2  833.87    5.53   0
  -4 -11   2  828.01    5.09   0
  -4  11   2  769.86    5.18   0
  -4  11   2  803.03    5.46   0
   4 -11  -2  851.42    5.75   0
  -3 -11   2  899.37    6.52   0
  -3  11   2  830.07    5.36   0
   3  11  -2  818.50    6.52   0
   3 -11  -2  871.81    5.83   0
  -3 -11   2  904.98    5.55   0
   3 -11  -2  867.72    5.29   0
  -3  11   2  880.60    6.25   0
   2 -11  -2  243.16    3.58   0
  -2 -11   2  247.13    3.62   0
  -2  11   2  234.91    3.55   0
  -2 -11   2  244.82    3.57   0
   2  11  -2  241.26    4.19   0
  -2  11   2  234.03    3.24   0
   2 -11  -2  246.44    3.75   0
  -1  11   2  450.25    4.00   0
  -1 -11   2  466.67    3.94   0
   1  11  -2  479.25    5.13   0
   1 -11  -2  472.87    4.04   0
  -1 -11   2  482.68    4.59   0
  -1  11   2  464.57    5.00   0
   1 -11  -2  493.05    5.52   0
   0  11  -2  204.71    3.59   0
   0  11   2  189.95    2.85   0
   0 -11  -2  218.05    4.40   0
   0 -11  -2  208.48    2.94   0
   0  11   2  213.20    4.51   0
   0  11  -2  214.49    3.91   0
   0 -11   2  204.73    3.52   0
   0 -11   2  213.24    3.79   0
  -1  11  -2  140.84    2.84   0
  -1 -11  -2  146.48    2.69   0
  -1 -11  -2  144.73    4.21   0
   1 -11   2  138.89    2.68   0
   1  11   2  140.15    4.33   0
   1 -11   2  146.28    3.38   0
   1  11   2  135.10    2.67   0
  -1  11  -2  147.26    3.49   0
   2 -11   2  181.31    2.97   0
  -2 -11  -2  187.08    5.61   0
  -2  11  -2  177.19    3.02   0
  -2 -11  -2  176.63    2.83   0
   2  11   2  179.10    3.46   0
   2 -11   2  184.94    3.49   0
  -2  11  -2  166.77    2.93   0
   3  11   2  259.15    3.90   0
  -3 -11  -2  259.70   10.10   0
  -3  11  -2  273.16    4.22   0
   3 -11   2  278.68    4.15   0
  -3  11  -2  276.49    3.96   0
  -3 -11  -2  285.91    3.89   0
   3 -11   2  282.85    3.85   0
   4 -11   2   35.12    3.01   0
  -4  11  -2   37.30    3.03   0
  -4 -11  -2   36.58    2.90   0
   4 -11   2   38.31    2.95   0
   4  11   2   32.48    2.28   0
  -5 -11  -2    8.34    2.81   0
   5 -11   2    7.11    2.01   0
  -5  11  -2    9.30    2.81   0
   5 -11   2    9.04    2.81   0
   5  11   2    9.62    1.99   0
   6 -11   2    1.14    2.06   0
   6 -11   2    1.88    2.04   0
  -6  11  -2    3.30    2.93   0
  -6 -11  -2    0.74    2.80   0
   6  11   2    1.75    2.15   0
  -7 -11  -2  149.23    3.05   0
  -7  11  -2  152.93    3.58   0
   7 -11   2  156.07    3.50   0
   7 -11   2  132.64    3.97   0
   8 -11   2  170.96    5.18   0
  -8  11  -2  184.98    3.22   0
  -8 -11  -2  199.04    4.10   0
   8 -11   2  191.40    3.16   0
   9 -11   2   -0.73    3.13   0
   9 -11   2    2.27    4.06   0
   9 -11   2    2.47    3.12   0
  -9 -11  -2    2.88    3.25   0
  -9  11  -2    2.03    2.29   0
 -10 -12   2   57.00    3.94   0
 -10  12   2   53.62    3.86   0
  10 -12  -2   48.50    3.86   0
 -10 -12   2   47.52    3.56   0
 -10 -12   2   54.69    2.70   0
 -10 -12   2   57.17    3.86   0
  10 -12  -2   58.10    2.70   0
 -10  12   2   47.14    2.71   0
  -9 -12   2    0.99    3.22   0
  -9 -12   2    1.55    2.20   0
  -9 -12   2    1.81    2.14   0
  -9  12   2    2.09    3.25   0
  -9 -12   2    1.51    3.24   0
   9 -12  -2    1.44    2.33   0
  -9  12   2    0.84    3.29   0
   9 -12  -2    0.39    2.19   0
   8 -12  -2  108.60    3.45   0
  -8 -12   2   98.44    2.73   0
   8 -12  -2   91.71    2.90   0
  -8 -12   2  100.28    3.94   0
  -8  12   2   99.79    3.73   0
  -8 -12   2   94.16    3.44   0
  -8  12   2   96.11    2.68   0
   7 -12  -2   42.88    2.43   0
  -7  12   2   36.55    2.43   0
  -7  12   2   45.80    3.28   0
  -7 -12   2   47.27    3.48   0
   7 -12  -2   49.42    3.09   0
  -7 -12   2   48.60    3.10   0
   6 -12  -2    0.74    2.01   0
   6 -12  -2   -0.06    1.97   0
  -6  12   2   -0.27    2.85   0
  -6  12   2    1.58    2.04   0
  -6 -12   2    0.30    2.73   0
  -6 -12   2    0.62    2.94   0
  -5 -12   2   42.09    3.11   0
  -5  12   2   37.43    2.30   0
  -5  12   2   38.45    2.34   0
   5 -12  -2   36.65    2.29   0
   5 -12  -2   37.87    2.94   0
  -5 -12   2   39.14    2.13   0
  -4  12   2   40.28    2.97   0
  -4 -12   2   38.69    2.85   0
  -4 -12   2   40.25    3.12   0
  -4  12   2   38.94    3.01   0
   4 -12  -2   39.00    2.93   0
   4 -12  -2   41.39    2.26   0
  -3 -12   2   44.15    2.07   0
  -3 -12   2   44.34    3.06   0
   3  12  -2   37.60    2.42   0
  -3  12   2   41.22    2.22   0
   3 -12  -2   44.17    2.23   0
  -3  12   2   40.55    3.06   0
   3 -12  -2   45.72    3.04   0
   2 -12  -2  330.92    4.52   0
  -2  12   2  300.20    3.92   0
  -2 -12   2  296.36    3.33   0
  -2  12   2  308.67    4.03   0
  -2 -12   2  316.10    4.05   0
   2  12  -2  313.16    4.63   0
   2 -12  -2  308.04    3.46   0
   1 -12  -2  195.36    4.14   0
  -1 -12   2  180.87    2.83   0
   1 -12  -2  194.52    3.44   0
  -1 -12   2  187.62    3.21   0
  -1  12   2  189.33    4.12   0
   1  12  -2  185.61    3.30   0
  -1  12   2  183.35    3.49   0
   0  12   2  128.46    3.97   0
   0  12  -2  119.10    2.74   0
   0  12   2  123.33    2.60   0
   0  12  -2  127.69    2.88   0
   0 -12   2  127.39    2.76   0
   0 -12   2  124.30    2.65   0
   0 -12  -2  134.57    2.60   0
   0 -12  -2  131.17    3.71   0
  -1  12  -2  143.95    3.44   0
   1  12   2  140.61    4.29   0
   1 -12   2  147.33    3.32   0
   1 -12   2  147.59    3.46   0
   1  12   2  134.67    2.69   0
  -1  12  -2  149.59    3.64   0
  -1 -12  -2  154.46    4.74   0
  -1 -12  -2  154.25    3.21   0
   2  12   2   61.71    3.08   0
  -2  12  -2   61.92    3.16   0
   2 -12   2   66.10    3.05   0
  -2  12  -2   63.07    2.36   0
  -2 -12  -2   66.00    4.14   0
  -2 -12  -2   63.39    2.25   0
   2 -12   2   65.35    3.12   0
   3  12   2   27.68    2.15   0
  -3 -12  -2   31.37    5.29   0
   3 -12   2   30.67    2.17   0
  -3  12  -2   32.13    2.13   0
   3 -12   2   31.97    2.85   0
  -3 -12  -2   32.98    2.86   0
   4 -12   2   13.53    2.90   0
  -4 -12  -2   14.40    2.77   0
   4  12   2   15.50    2.87   0
   4 -12   2   15.60    2.90   0
  -4  12  -2   13.77    2.13   0
  -5  12  -2   27.98    3.10   0
   5 -12   2   27.17    2.22   0
  -5 -12  -2   25.72    2.11   0
   5 -12   2   24.58    3.09   0
   5  12   2   22.07    2.24   0
  -6 -12  -2    9.10    2.93   0
  -6  12  -2    4.54    2.10   0
   6  12   2   10.39    3.04   0
   6 -12   2    6.81    2.17   0
   6 -12   2    9.44    2.91   0
   7 -12   2    1.25    3.12   0
  -7  12  -2    6.13    3.27   0
  -7 -12  -2    1.69    2.21   0
   7 -12   2    0.51    2.09   0
   8 -12   2    1.86    3.23   0
  -8  12  -2    1.13    2.30   0
  -8 -12  -2    1.77    2.23   0
   8 -12   2    3.60    3.17   0
   9 -12   2  105.84    4.45   0
   9 -12   2  132.07    3.77   0
  -9 -12  -2  125.05    3.98   0
   9 -12   2  111.88    4.58   0
  -9  12  -2  108.37    3.02   0
   9 -13  -2  196.37    4.42   0
  -9 -13   2  224.99    5.18   0
  -9 -13   2  199.21    5.04   0
   9 -13  -2  209.81    3.32   0
  -9 -13   2  192.95    4.02   0
  -9 -13   2  188.90    4.02   0
  -9  13   2  178.73    3.65   0
  -9  13   2  212.27    4.14   0
  -8 -13   2  273.56    3.59   0
  -8  13   2  264.56    3.94   0
  -8 -13   2  257.76    3.52   0
   8 -13  -2  281.63    3.64   0
  -8 -13   2  287.84    5.43   0
  -8  13   2  279.79    4.38   0
   8 -13  -2  253.49    3.83   0
   7 -13  -2   21.29    3.14   0
  -7 -13   2   27.91    3.09   0
  -7  13   2   24.12    3.20   0
  -7 -13   2   24.82    3.25   0
   7 -13  -2   22.92    3.11   0
  -7  13   2   23.40    2.32   0
  -6 -13   2   26.26    2.96   0
   6 -13  -2   29.56    3.02   0
  -6  13   2   25.58    3.10   0
  -6  13   2   23.18    3.26   0
   6 -13  -2   24.80    3.11   0
  -6 -13   2   25.46    3.18   0
   5 -13  -2   48.17    3.11   0
   5 -13  -2   42.21    2.31   0
  -5 -13   2   39.10    2.26   0
  -5 -13   2   41.96    3.24   0
  -5  13   2   41.23    3.14   0
  -5  13   2   37.24    3.18   0
   4 -13  -2  259.60    3.50   0
  -4  13   2  254.98    4.01   0
  -4  13   2  245.08    3.41   0
  -4 -13   2  256.44    3.23   0
   4 -13  -2  265.97    3.95   0
  -4 -13   2  274.31    4.54   0
   3 -13  -2  365.26    4.18   0
  -3 -13   2  369.46    4.10   0
  -3 -13   2  367.67    4.97   0
   3  13  -2  344.28    5.12   0
  -3  13   2  361.15    4.67   0
   3 -13  -2  365.40    3.67   0
  -3  13   2  341.16    3.64   0
  -2 -13   2  333.90    4.62   0
   2 -13  -2  349.85    4.66   0
  -2 -13   2  319.98    3.42   0
  -2  13   2  305.84    3.53   0
   2 -13  -2  342.98    4.15   0
  -2  13   2  322.89    4.60   0
   2  13  -2  305.60    4.69   0
   1 -13  -2  153.47    3.86   0
  -1 -13   2  144.80    3.33   0
  -1  13   2  130.22    2.69   0
  -1  13   2  145.82    3.88   0
   1 -13  -2  145.02    3.34   0
  -1 -13   2  142.59    3.55   0
   1  13  -2  143.31    3.74   0
   0 -13   2  534.55    4.29   0
   0  13  -2  541.97    5.26   0
   0  13   2  504.91    4.07   0
   0 -13  -2  554.73    4.68   0
   0 -13   2  565.13    5.19   0
   0  13   2  532.37    6.21   0
   0 -13  -2  574.30    6.28   0
  -1 -13  -2  795.24    5.30   0
  -1 -13  -2  809.03    8.34   0
  -1  13  -2  805.80    5.91   0
   1  13   2  693.28    4.69   0
   1  13   2  738.43    7.93   0
   1 -13   2  786.20    5.39   0
   1 -13   2  796.30    5.74   0
  -2 -13  -2  350.12    6.82   0
   2 -13   2  332.58    4.29   0
  -2  13  -2  346.68    4.40   0
   2 -13   2  326.49    3.70   0
  -2 -13  -2  337.92    4.10   0
   2  13   2  305.34    3.50   0
   3  13   2   76.33    3.27   0
  -3 -13  -2   86.90    6.55   0
   3 -13   2   83.69    2.57   0
  -3 -13  -2   88.81    3.22   0
   3 -13   2   85.16    3.27   0
  -3  13  -2   83.77    3.24   0
  -4  13  -2  109.59    2.72   0
  -4 -13  -2  111.23    3.32   0
   4 -13   2  107.16    3.49   0
   4  13   2  102.83    3.40   0
   4 -13   2  115.59    3.29   0
   5 -13   2  144.90    3.79   0
  -5  13  -2  140.21    3.53   0
  -5 -13  -2  142.97    2.86   0
   5 -13   2  144.55    2.83   0
   5  13   2  128.76    2.86   0
   6 -13   2  124.37    3.87   0
  -6 -13  -2  122.61    2.87   0
  -6  13  -2  118.93    2.90   0
   6 -13   2  125.51    3.54   0
  -7  13  -2    2.81    2.22   0
   7 -13   2    1.25    2.36   0
  -7 -13  -2    2.89    3.07   0
   7 -13   2    3.13    3.04   0
   8 -13   2   21.38    2.40   0
   8 -13   2   18.78    3.38   0
  -8  13  -2   18.64    2.52   0
  -8 -13  -2   20.60    3.33   0
  -9 -14   2    3.84    3.28   0
  -9 -14   2    4.80    4.26   0
  -9  14   2    3.58    2.49   0
  -9  14   2    5.73    2.51   0
  -9 -14   2    5.77    4.19   0
   9 -14  -2    7.06    3.37   0
  -9 -14   2    2.58    3.29   0
  -8 -14   2   90.92    2.81   0
   8 -14  -2   86.68    2.97   0
   8 -14  -2  101.40    2.89   0
  -8  14   2   95.70    3.91   0
  -8 -14   2   99.24    4.24   0
  -8 -14   2   96.80    2.83   0
  -8  14   2  103.58    3.84   0
   7 -14  -2   58.67    2.46   0
  -7 -14   2   58.05    3.29   0
  -7 -14   2   55.60    4.33   0
  -7  14   2   55.66    3.62   0
   7 -14  -2   53.40    2.65   0
  -7  14   2   48.12    2.59   0
  -6 -14   2    1.55    2.93   0
  -6  14   2    3.95    3.16   0
  -6 -14   2    1.99    2.12   0
   6 -14  -2    3.29    2.10   0
   6 -14  -2    2.84    3.11   0
  -6  14   2    1.50    2.18   0
  -5  14   2   15.27    2.25   0
  -5 -14   2   15.25    2.90   0
   5 -14  -2   16.82    3.08   0
  -5  14   2   18.15    3.15   0
  -5 -14   2   13.00    3.08   0
   5 -14  -2   13.32    2.17   0
   4 -14  -2   40.20    3.17   0
  -4  14   2   43.25    3.20   0
  -4 -14   2   38.36    2.25   0
  -4 -14   2   39.46    3.20   0
  -4  14   2   33.91    3.20   0
   4 -14  -2   39.95    3.17   0
  -3  14   2    9.58    3.02   0
  -3  14   2   11.97    3.06   0
  -3 -14   2   11.16    2.97   0
  -3 -14   2   12.94    2.84   0
   3 -14  -2   13.86    2.08   0
   3 -14  -2   11.31    2.08   0
   3  14  -2   11.48    3.21   0
   2  14  -2  137.95    3.90   0
  -2  14   2  131.01    2.81   0
  -2  14   2  140.29    3.87   0
  -2 -14   2  142.88    3.64   0
   2 -14  -2  138.94    3.49   0
   2 -14  -2  147.11    3.70   0
  -2 -14   2  138.83    3.35   0
   1 -14  -2  103.19    2.96   0
  -1  14   2  101.83    2.64   0
  -1 -14   2  110.60    3.29   0
  -1 -14   2  107.66    3.40   0
   1 -14  -2  111.69    2.64   0
  -1  14   2  111.22    3.71   0
   1  14  -2  106.09    2.89   0
   0 -14  -2   26.97    3.25   0
   0  14  -2   26.40    3.17   0
   0  14   2   28.01    2.22   0
   0 -14   2   27.53    2.23   0
   0  14   2   24.83    2.48   0
   0 -14  -2   25.17    2.87   0
   0 -14   2   26.27    2.14   0
  -1 -14  -2    6.58    3.07   0
   1  14   2    3.20    2.07   0
  -1  14  -2    6.76    3.00   0
   1 -14   2    5.81    2.86   0
   1  14   2    6.78    3.92   0
  -1 -14  -2    5.66    2.84   0
   1 -14   2    5.98    2.99   0
   2 -14   2  104.58    2.69   0
  -2  14  -2  110.76    3.62   0
   2  14   2  102.75    2.71   0
  -2 -14  -2  109.54    2.68   0
  -2 -14  -2  110.46    4.83   0
   2 -14   2  113.29    2.70   0
  -3 -14  -2   70.56    3.26   0
  -3  14  -2   66.42    3.34   0
   3  14   2   55.93    2.45   0
   3 -14   2   61.17    2.46   0
   3 -14   2   67.43    3.19   0
  -4 -14  -2   -0.46    2.85   0
   4  14   2    2.49    2.14   0
   4 -14   2    1.01    2.06   0
  -4  14  -2    2.13    3.06   0
   4 -14   2    0.83    2.08   0
   5  14   2   21.95    2.34   0
   5 -14   2   23.93    3.32   0
  -5  14  -2   23.34    2.27   0
  -5 -14  -2   22.93    2.25   0
   5 -14   2   26.71    2.17   0
   6 -14   2  153.83    3.38   0
  -6  14  -2  167.87    3.18   0
   6 -14   2  173.62    3.13   0
  -6 -14  -2  169.53    3.18   0
   7 -14   2   63.77    3.50   0
  -7  14  -2   62.95    2.75   0
  -7 -14  -2   60.86    3.52   0
   7 -14   2   53.71    3.66   0
   8 -15  -2  532.53    5.70   0
  -8 -15   2  554.10    7.64   0
  -8  15   2  555.58    5.78   0
  -8 -15   2  531.70    4.69   0
   8 -15  -2  576.24    5.49   0
  -8  15   2  491.36    4.52   0
  -8 -15   2  479.27    4.59   0
  -7  15   2  213.50    4.27   0
  -7 -15   2  215.39    4.13   0
   7 -15  -2  236.33    4.27   0
  -7 -15   2  210.93    5.03   0
  -7  15   2  217.29    4.21   0
   7 -15  -2  206.67    4.23   0
   6 -15  -2  162.33    3.85   0
  -6 -15   2  156.18    3.00   0
  -6  15   2  150.92    3.18   0
  -6 -15   2  158.24    4.47   0
  -6  15   2  144.81    3.21   0
   6 -15  -2  165.47    3.18   0
  -5 -15   2  104.93    3.46   0
  -5 -15   2   94.79    3.85   0
  -5  15   2   85.66    3.48   0
   5 -15  -2   97.36    3.51   0
   5 -15  -2   95.35    2.79   0
  -5  15   2   86.46    2.83   0
   4 -15  -2    9.96    3.08   0
  -4  15   2    5.98    2.25   0
  -4  15   2    8.16    2.24   0
  -4 -15   2    4.61    3.00   0
   4 -15  -2    8.95    3.05   0
  -4 -15   2    7.60    3.01   0
  -3  15   2   71.24    3.49   0
  -3 -15   2   65.55    2.35   0
  -3  15   2   61.72    2.46   0
   3  15  -2   62.75    3.74   0
  -3 -15   2   66.84    3.39   0
   3 -15  -2   69.22    3.40   0
   3 -15  -2   64.44    3.18   0
   2 -15  -2   68.99    3.42   0
  -2 -15   2   71.04    3.04   0
  -2 -15   2   64.02    2.61   0
   2  15  -2   61.45    2.77   0
  -2  15   2   60.48    2.47   0
   2 -15  -2   69.92    2.55   0
  -2  15   2   65.67    2.73   0
  -1  15   2   53.84    3.49   0
  -1 -15   2   58.49    3.07   0
  -1  15   2   48.47    2.41   0
   1  15  -2   53.20    3.47   0
   1 -15  -2   54.35    2.33   0
  -1 -15   2   56.02    3.26   0
   1 -15  -2   56.71    3.38   0
   0  15   2  378.80    5.64   0
   0  15   2  351.81    3.68   0
   0 -15   2  378.59    3.70   0
   0  15  -2  391.37    4.95   0
   0 -15  -2  391.09    4.29   0
   0 -15  -2  407.81    5.63   0
   0 -15   2  399.12    4.77   0
   1  15   2  407.72    4.42   0
   1  15   2  407.78    6.23   0
  -1 -15  -2  451.22    6.24   0
   1 -15   2  430.36    4.22   0
   1 -15   2  428.28    3.93   0
  -1 -15  -2  464.91    4.46   0
  -1  15  -2  432.23    4.96   0
   2  15   2  294.08    4.14   0
  -2  15  -2  308.40    3.83   0
  -2 -15  -2  326.51    6.81   0
   2 -15   2  312.71    3.77   0
   2 -15   2  311.23    4.25   0
  -2 -15  -2  309.56    3.46   0
   3  15   2  146.48    3.71   0
  -3  15  -2  142.65    3.12   0
  -3 -15  -2  163.38    3.69   0
   3 -15   2  144.87    2.93   0
   3 -15   2  155.83    2.99   0
   4  15   2  174.79    3.13   0
   4 -15   2  200.80    3.25   0
  -4  15  -2  191.83    3.32   0
   4 -15   2  199.36    4.06   0
  -4 -15  -2  205.84    3.84   0
   5  15   2  314.68    3.81   0
   5 -15   2  363.25    4.83   0
   5 -15   2  354.13    3.90   0
  -5  15  -2  371.95    4.61   0
  -5 -15  -2  358.61    3.89   0
  -6 -15  -2  119.29    2.94   0
  -6  15  -2  138.36    3.78   0
   6 -15   2  118.13    4.01   0
   6 -15   2  122.43    2.99   0
  -7  16   2    8.66    3.62   0
  -7 -16   2   10.23    3.47   0
  -6  16   2   60.26    2.80   0
  -6 -16   2   64.84    2.65   0
   6 -16  -2   64.89    2.74   0
  -6 -16   2   64.75    3.85   0
  -6  16   2   67.99    3.70   0
   6 -16  -2   69.72    3.65   0
  -5 -16   2  101.75    4.07   0
  -5  16   2   93.62    3.76   0
   5 -16  -2  103.76    3.64   0
  -5 -16   2   98.58    3.60   0
  -5  16   2   98.24    3.78   0
   5 -16  -2   94.24    2.86   0
  -4  16   2    3.71    2.29   0
  -4  16   2    5.17    3.29   0
   4 -16  -2    4.83    2.24   0
  -4 -16   2    5.80    3.16   0
   4 -16  -2    4.93    2.30   0
  -4 -16   2    5.33    2.92   0
  -3 -16   2    7.04    2.13   0
  -3  16   2    7.41    2.28   0
   3 -16  -2    7.59    3.09   0
  -3 -16   2    8.20    3.09   0
  -3  16   2    9.16    3.31   0
   3  16  -2    8.38    3.44   0
   3 -16  -2    7.05    3.21   0
   2 -16  -2   18.34    2.36   0
  -2  16   2   15.26    3.22   0
   2  16  -2   20.54    3.48   0
  -2 -16   2   24.15    3.17   0
  -2  16   2   19.50    3.38   0
  -2 -16   2   21.23    3.21   0
   2 -16  -2   24.00    2.26   0
  -1  16   2    5.16    3.29   0
   1 -16  -2    4.13    3.08   0
   1 -16  -2    1.65    2.15   0
  -1 -16   2    5.54    2.90   0
   1  16  -2    4.64    3.35   0
  -1  16   2    3.60    2.24   0
  -1 -16   2    4.62    3.03   0
   0  16   2   61.56    3.90   0
   0 -16  -2   65.77    3.77   0
   0  16  -2   58.80    3.57   0
   0 -16   2   61.07    2.49   0
   0  16   2   57.04    2.48   0
   0 -16   2   62.09    3.39   0
   0 -16  -2   59.17    2.51   0
  -1  16  -2  250.23    3.75   0
  -1 -16  -2  265.62    3.37   0
   1  16   2  256.42    4.06   0
  -1 -16  -2  270.78    5.37   0
   1 -16   2  261.74    3.39   0
   1 -16   2  265.15    3.71   0
   1  16   2  252.04    5.39   0
  -2 -16  -2   43.89    4.47   0
   2  16   2   37.31    2.42   0
  -2 -16  -2   43.11    2.35   0
   2 -16   2   41.80    2.44   0
  -2  16  -2   38.45    2.54   0
   2 -16   2   43.20    3.25   0
  -3 -16  -2    4.78    2.12   0
   3  16   2    5.15    3.23   0
  -3  16  -2    4.00    3.34   0
   3 -16   2    3.09    2.24   0
   3 -16   2    3.83    3.28   0
   4  16   2    3.60    3.28   0
  -4  16  -2    1.16    2.40   0
  -4 -16  -2    0.49    2.35   0
   4 -16   2    2.45    2.27   0
   4 -16   2    8.13    3.20   0
  -5 -16  -2    4.34    3.36   0
   5 -16   2    2.95    2.41   0
  -5  16  -2    6.27    3.56   0
   5 -16   2    6.51    3.37   0
  -5 -17   2   39.62    4.28   0
  -5  17   2   36.08    3.60   0
   5 -17  -2   44.00    3.55   0
  -5  17   2   42.40    3.65   0
  -5 -17   2   47.71    3.35   0
   5 -17  -2   41.41    3.49   0
  -4  17   2    4.26    2.42   0
  -4  17   2    5.36    2.36   0
  -4 -17   2    5.65    3.17   0
   4 -17  -2    5.48    3.32   0
  -4 -17   2    4.30    3.15   0
   4 -17  -2    7.03    3.19   0
   3 -17  -2  377.86    5.13   0
  -3  17   2  324.18    3.90   0
   3  17  -2  344.26    5.55   0
  -3 -17   2  362.00    5.41   0
  -3  17   2  362.58    5.09   0
  -3 -17   2  349.93    3.74   0
   3 -17  -2  351.44    3.89   0
   2 -17  -2  275.12    4.78   0
  -2  17   2  244.01    4.16   0
  -2 -17   2  256.26    4.01   0
  -2  17   2  245.19    4.91   0
   2  17  -2  240.78    4.91   0
  -2 -17   2  244.53    4.03   0
   2 -17  -2  245.11    3.39   0
   1 -17  -2   36.06    3.47   0
  -1  17   2   29.62    2.52   0
   1 -17  -2   34.38    3.33   0
  -1 -17   2   35.47    3.40   0
  -1  17   2   32.95    3.72   0
   1  17  -2   35.43    3.62   0
  -1 -17   2   37.26    3.28   0
   0 -17   2   52.95    2.69   0
   0  17  -2   53.91    2.83   0
   0  17   2   55.75    2.54   0
   0  17   2   53.92    4.04   0
   0 -17  -2   64.01    3.76   0
   0 -17   2   53.60    2.49   0
   0 -17  -2   58.08    2.56   0
   1 -17   2  228.28    3.37   0
  -1 -17  -2  234.60    5.38   0
   1  17   2  213.70    4.05   0
   1  17   2  222.66    5.32   0
  -1  17  -2  235.98    4.45   0
   1 -17   2  254.11    4.37   0
  -1 -17  -2  233.71    3.27   0
   2 -17   2  329.23    4.08   0
   2  17   2  283.15    3.77   0
  -2  17  -2  337.02    4.81   0
   2 -17   2  319.60    3.79   0
  -2 -17  -2  355.84    7.60   0
  -2 -17  -2  337.80    4.51   0
   3  17   2  187.16    3.24   0
  -3 -17  -2  210.58    3.28   0
   3 -17   2  197.55    3.42   0
  -3  17  -2  206.04    4.41   0
   3 -17   2  226.92    4.28   0
   4  17   2  335.53    3.95   0
  -4  17  -2  393.38    4.98   0
   4 -17   2  374.19    4.97   0
  -4 -17  -2  370.74    4.03   0
   4 -17   2  381.24    4.92   0
   3 -18  -2    0.49    2.40   0
   3 -18  -2    1.40    2.20   0
  -3  18   2    1.83    3.57   0
  -3 -18   2    2.37    3.40   0
  -3  18   2    0.03    2.33   0
  -3 -18   2    0.74    2.26   0
  -2  18   2   85.03    3.73   0
  -2 -18   2   92.31    3.67   0
   2  18  -2   88.65    4.16   0
  -2  18   2   93.98    4.14   0
  -2 -18   2   99.21    3.94   0
   2 -18  -2   80.41    2.68   0
   2 -18  -2  101.60    4.04   0
  -1  18   2   40.41    2.65   0
   1 -18  -2   50.41    3.79   0
  -1 -18   2   54.92    3.58   0
   1 -18  -2   52.00    3.45   0
   1  18  -2   46.24    3.79   0
  -1 -18   2   54.18    3.39   0
  -1  18   2   45.70    3.82   0
   0 -18   2   70.84    2.62   0
   0 -18  -2   75.21    2.70   0
   0  18   2   64.39    2.71   0
   0  18  -2   71.76    3.96   0
   0 -18   2   74.19    3.75   0
   0  18   2   68.51    4.28   0
   0 -18  -2   69.21    4.03   0
  -1 -18  -2   38.37    3.81   0
   1  18   2   36.81    2.57   0
   1  18   2   34.75    4.54   0
   1 -18   2   34.74    2.59   0
   1 -18   2   34.35    2.40   0
  -1 -18  -2   35.83    2.43   0
  -1  18  -2   38.17    3.69   0
 -13  -1   3    1.26    4.09   0
 -13  -1   3   -0.21    4.59   0
 -13  -1   3    7.89    2.41   0
 -13   1   3    4.42    3.20   0
 -12   1   3   68.77    3.53   0
 -12  -1   3   66.39    4.37   0
 -12  -1   3   69.23    3.48   0
 -12  -1   3   65.22    4.60   0
 -12   1   3   64.08    5.21   0
 -12   1   3   67.96    5.31   0
 -11   1   3  113.73    4.36   0
 -11  -1   3  123.14    4.59   0
 -11  -1   3  127.98    3.58   0
 -11   1   3  131.72    3.45   0
 -11  -1   3  131.54    4.95   0
 -10  -1   3  669.35    5.30   0
 -10   1   3  659.42    4.71   0
 -10  -1   3  685.98    7.27   0
 -10   1   3  633.69    7.35   0
 -10  -1   3  633.60    6.85   0
  -9   1   3  469.24    6.30   0
  -9  -1   3  502.15    6.04   0
  -9  -1   3  493.80    4.76   0
   9  -1  -3  477.61    6.11   0
  -9   1   3  482.27    4.17   0
  -8   1   3  211.77    3.12   0
  -8  -1   3  206.72    3.28   0
  -8   1   3  217.26    4.55   0
   8  -1  -3  206.09    4.28   0
  -8  -1   3  223.97    4.31   0
  -7   1   3  969.27    6.24   0
  -7  -1   3  990.83    7.85   0
   7  -1  -3  948.39    7.77   0
   7   1  -3  947.16    7.56   0
  -7  -1   3  934.05    6.02   0
  -7   1   3  972.79    8.16   0
  -6  -1   3 2514.48   11.98   0
  -6   1   3 2356.77    9.53   0
  -6  -1   3 2360.26    9.80   0
   6  -1  -3 2303.07   11.65   0
  -6   1   3 2435.74   12.26   0
   6   1  -3 2364.09   11.50   0
  -5   1   3 3803.48   15.48   0
   5  -1  -3 3768.31   15.15   0
  -5   1   3 3686.58   12.56   0
  -5  -1   3 3915.93   15.18   0
   5   1  -3 3662.98   14.50   0
   4  -1  -3 1170.95    8.94   0
  -4   1   3 1182.70    9.18   0
   4   1  -3 1154.61    8.60   0
  -4  -1   3 1189.47    8.82   0
   3  -1  -3  287.16    5.06   0
   3   1  -3  288.55    4.97   0
  -3  -1   3  285.63    4.66   0
  -3   1   3  281.50    4.78   0
   2  -1  -3 6594.04   21.92   0
  -2  -1   3 5838.64   21.13   0
   2   1  -3 6473.79   21.32   0
  -2  -1   3 6505.92   21.46   0
  -2   1   3 6593.71   22.06   0
  -1  -1   3  173.44    4.19   0
   1   1  -3  166.19    4.26   0
  -1   1   3  178.64    4.73   0
  -1  -1   3  170.15    4.83   0
   1  -1  -3  174.32    4.23   0
   1   1  -3  170.73    4.61   0
   0   1  -3  644.65    8.00   0
   0  -1  -3  647.53    9.32   0
   0   1   3  624.05    7.55   0
   0   1   3  669.16    9.48   0
   0  -1   3  688.08    8.24   0
   0  -1   3  666.31    7.50   0
   0   1  -3  667.99    7.84   0
   0  -1  -3  672.50    8.10   0
   1  -1   3   14.57    2.98   0
   1   1   3   12.62    2.22   0
  -1  -1  -3   14.29    3.32   0
  -1   1  -3   14.53    2.96   0
   1  -1   3   15.01    2.82   0
   1   1   3   13.40    3.08   0
  -1  -1  -3   13.74    2.97   0
  -1   1  -3   13.73    2.28   0
  -2   1  -3   42.97    3.86   0
   2  -1   3   41.27    3.38   0
  -2   1  -3   42.15    2.47   0
  -2  -1  -3   48.77    3.22   0
  -2  -1  -3   44.73    3.29   0
   2   1   3   43.48    3.07   0
   2   1   3   37.55    3.06   0
   2  -1   3   42.13    2.98   0
   3  -1   3 1054.61   14.21   0
  -3  -1  -3 1096.66   11.52   0
   3  -1   3 1105.32    7.67   0
   3   1   3 1052.61   10.89   0
  -3  -1  -3 1148.79    8.79   0
  -3   1  -3 1142.05    7.91   0
   3   1   3 1056.84    8.27   0
  -3   1  -3 1073.11   13.93   0
   4   1   3 1726.66   15.09   0
   4  -1   3 1723.42    8.74   0
  -4  -1  -3 1790.34   15.54   0
  -4  -1  -3 1857.90   10.17   0
  -4   1  -3 1829.79    9.18   0
   4   1   3 1738.71    9.62   0
  -5  -1  -3    6.75    3.24   0
  -5   1  -3    5.33    1.85   0
  -5  -1  -3    5.74    1.81   0
   5  -1   3    6.03    2.48   0
   5   1   3    6.59    2.43   0
  -6   1  -3 1249.44    6.77   0
   6   1   3 1214.58    7.28   0
  -6  -1  -3 1260.74    7.38   0
   6  -1   3 1250.77    7.05   0
   7   1   3  677.57    5.75   0
  -7  -1  -3  681.95    5.31   0
  -7   1  -3  710.21    5.49   0
   7  -1   3  673.11    5.41   0
   8   1   3  828.80    6.21   0
   8  -1   3  815.94    5.41   0
  -8  -1  -3  857.94    6.26   0
  -8   1  -3  831.05    5.48   0
  -9  -1  -3  869.41    6.29   0
   9  -1   3  816.54    5.44   0
  -9   1  -3  817.41    5.40   0
  10  -1   3  134.34    3.00   0
 -10   1  -3  136.64    3.05   0
 -10  -1  -3  137.23    3.08   0
 -11   1  -3   40.85    3.39   0
 -11  -1  -3   40.99    3.48   0
 -13   2   3   41.94    3.50   0
 -13  -2   3   42.50    4.50   0
 -13  -2   3   40.80    4.70   0
 -13  -2   3   44.60    3.50   0
 -12  -2   3   20.83    3.51   0
 -12   2   3   20.75    4.61   0
 -12   2   3   22.21    3.30   0
 -12  -2   3   19.61    3.28   0
 -12   2   3   21.64    4.69   0
 -12  -2   3   21.31    3.33   0
 -11  -2   3   90.35    4.25   0
 -11  -2   3  101.36    4.56   0
 -11  -2   3   94.59    2.72   0
 -11   2   3   95.34    4.69   0
 -11   2   3  102.25    3.52   0
 -10  -2   3   42.07    3.00   0
  10  -2  -3   40.53    3.82   0
 -10  -2   3   40.18    3.09   0
 -10  -2   3   43.07    3.33   0
 -10   2   3   44.17    3.11   0
 -10   2   3   41.27    3.84   0
  -9   2   3  646.22    7.41   0
  -9   2   3  679.44    5.31   0
  -9  -2   3  712.14    6.78   0
  -9  -2   3  665.14    5.01   0
   9  -2  -3  651.70    7.00   0
  -8   2   3  407.94    5.72   0
  -8  -2   3  421.80    4.20   0
  -8   2   3  430.15    4.48   0
   8  -2  -3  420.82    5.58   0
  -8  -2   3  445.58    5.44   0
  -7   2   3  268.58    3.47   0
   7  -2  -3  255.21    4.17   0
  -7   2   3  261.82    4.76   0
  -7  -2   3  266.42    4.04   0
  -7  -2   3  258.87    3.57   0
  -6   2   3 1870.86   11.00   0
  -6   2   3 1957.93    8.72   0
  -6  -2   3 1979.67   10.40   0
   6  -2  -3 1940.99   10.83   0
  -5   2   3  933.58    6.64   0
  -5   2   3  889.34    7.54   0
  -5  -2   3  942.19    7.41   0
   5   2  -3  881.21    6.93   0
   5  -2  -3  941.93    7.74   0
  -4   2   3  130.45    3.10   0
  -4   2   3  126.24    3.37   0
   4   2  -3  130.08    3.70   0
   4  -2  -3  133.01    3.35   0
  -4  -2   3  135.03    3.74   0
  -3  -2   3 1820.65   10.49   0
  -3   2   3 1820.61   10.99   0
   3  -2  -3 1854.38   10.97   0
   3   2  -3 1817.94   10.56   0
  -2  -2   3  209.77    4.49   0
   2   2  -3  198.75    3.95   0
   2  -2  -3  202.63    4.51   0
  -2   2   3  195.00    4.09   0
  -2  -2   3  196.74    4.24   0
  -1   2   3  525.50    6.62   0
   1   2  -3  533.88    6.49   0
  -1  -2   3  547.36    6.71   0
  -1  -2   3  566.78    6.91   0
   1  -2  -3  523.88    6.28   0
   1   2  -3  550.44    6.70   0
   0   2   3 1093.91    8.99   0
   0  -2   3 1184.92    9.78   0
   0   2  -3 1270.57    9.52   0
   0  -2  -3 1168.01    9.49   0
   0   2   3 1159.31   13.78   0
   0  -2   3 1205.96    9.02   0
   0   2  -3 1164.25    9.66   0
  -1  -2  -3  173.97    4.06   0
  -1  -2  -3  192.05    5.98   0
   1  -2   3  180.26    3.70   0
   1  -2   3  181.89    4.83   0
  -1   2  -3  188.18    3.81   0
  -1   2  -3  170.20    4.31   0
   1   2   3  179.64    5.64   0
   1   2   3  170.68    4.42   0
  -2  -2  -3  231.48    4.96   0
   2   2   3  224.71    4.87   0
  -2  -2  -3  264.53    5.80   0
   2   2   3  240.26    5.52   0
  -2   2  -3  257.24    4.47   0
   2  -2   3  242.01    5.62   0
   2  -2   3  242.14    4.32   0
   3  -2   3 1256.14   13.77   0
  -3   2  -3 1248.05    7.81   0
   3   2   3 1168.76    9.96   0
   3   2   3 1185.50    9.53   0
  -3  -2  -3 1103.26    9.60   0
   3  -2   3 1208.65   13.49   0
   3  -2   3 1236.72    7.67   0
  -3  -2  -3 1275.52   10.05   0
   4   2   3  433.42    5.66   0
  -4  -2  -3  453.56    5.79   0
  -4  -2  -3  422.81    6.61   0
   4  -2   3  386.03   13.00   0
   4  -2   3  429.14   13.14   0
  -4   2  -3  461.47    4.91   0
   4  -2   3  439.59    4.81   0
   4   2   3  425.48    6.57   0
   5   2   3  144.69    3.73   0
   5   2   3  136.41    4.43   0
  -5  -2  -3  141.84    4.86   0
  -5  -2  -3  146.70    3.76   0
   5  -2   3  141.08    2.81   0
  -5   2  -3  148.25    2.86   0
  -6  -2  -3    7.54    2.74   0
   6   2   3    5.91    2.80   0
   6  -2   3    6.46    1.89   0
  -6   2  -3    6.37    1.89   0
  -6  -2  -3    6.97    3.48   0
   7  -2   3   66.69    2.35   0
   7   2   3   69.12    3.18   0
  -7  -2  -3   66.96    5.64   0
  -7   2  -3   67.48    3.04   0
  -7  -2  -3   68.27    5.92   0
  -7  -2  -3   72.57    3.23   0
  -8  -2  -3    8.26    2.82   0
  -8   2  -3    7.75    2.11   0
   8  -2   3    8.30    2.79   0
   9  -2   3  123.94    3.50   0
  -9   2  -3  127.71    3.53   0
  -9  -2  -3  128.62    3.69   0
  10  -2   3   22.13    3.12   0
 -10  -2  -3   24.49    3.20   0
 -10   2  -3   26.77    3.25   0
  11  -2   3    6.94    2.32   0
 -11   2  -3   10.11    2.37   0
 -11  -2  -3    9.70    3.28   0
 -13   3   3  179.33    3.26   0
 -13  -3   3  191.08    5.98   0
 -13  -3   3  200.46    4.23   0
 -13  -3   3  183.45    5.70   0
 -12  -3   3  117.26    4.12   0
 -12   3   3  115.35    6.09   0
 -12  -3   3  123.57    3.73   0
 -12   3   3  105.05    2.73   0
 -12  -3   3  124.61    4.94   0
 -11  -3   3  280.32    4.97   0
 -11   3   3  294.88    4.12   0
 -11  -3   3  276.16    3.62   0
 -11   3   3  276.83    5.79   0
 -11  -3   3  297.14    5.14   0
  10  -3  -3  600.82    7.50   0
 -10   3   3  596.60    7.22   0
 -10   3   3  596.83    4.49   0
 -10  -3   3  574.24    6.16   0
 -10  -3   3  644.27    5.36   0
 -10  -3   3  642.92    6.54   0
  -9  -3   3  387.13    5.15   0
  -9  -3   3  408.59    5.32   0
  -9   3   3  375.37    5.68   0
   9  -3  -3  397.81    6.05   0
  -9  -3   3  404.65    4.53   0
  -9   3   3  388.60    3.85   0
  -8  -3   3  558.52    5.35   0
   8  -3  -3  591.94    6.35   0
  -8  -3   3  635.92    6.09   0
  -8  -3   3  606.59    4.99   0
  -8   3   3  630.42    5.03   0
  -8   3   3  575.00    6.47   0
  -7   3   3  400.72    5.42   0
   7  -3  -3  433.17    5.49   0
  -7  -3   3  448.80    5.27   0
  -7   3   3  413.37    4.01   0
  -6  -3   3 1166.90    7.50   0
  -6   3   3 1137.56    6.51   0
   6  -3  -3 1165.68    8.18   0
  -6   3   3 1105.23    8.40   0
  -5   3   3   12.22    1.86   0
  -5   3   3   12.26    2.60   0
   5  -3  -3   13.13    1.89   0
  -5  -3   3   13.02    1.92   0
  -4   3   3   48.13    3.07   0
   4  -3  -3   52.07    3.02   0
  -4   3   3   57.83    3.01   0
  -4  -3   3   51.21    2.97   0
  -3   3   3   16.11    2.09   0
  -3   3   3   18.27    2.21   0
   3  -3  -3   17.77    2.81   0
  -3  -3   3   16.90    2.05   0
  -3  -3   3   17.33    2.28   0
   2  -3  -3  565.01    5.93   0
  -2  -3   3  619.23    6.82   0
   2   3  -3  575.08    6.35   0
  -2   3   3  589.64    6.85   0
  -2  -3   3  587.97    5.92   0
  -2   3   3  559.64    6.00   0
   1  -3  -3  165.71    3.59   0
   1   3  -3  177.92    4.42   0
  -1   3   3  163.87    4.06   0
  -1  -3   3  178.88    3.90   0
  -1  -3   3  171.93    4.14   0
  -1  -3  -3 2308.64   12.03   0
   1  -3   3 2420.16   13.60   0
  -1  -3  -3 2444.38   24.78   0
   1  -3   3 2421.55   11.07   0
  -1   3  -3 2587.14   11.66   0
   1   3   3 2275.90   11.91   0
   1   3   3 2422.41   23.73   0
  -2  -3  -3  996.99   12.32   0
  -2   3  -3  968.71    6.79   0
   2  -3   3  925.67    9.13   0
   2  -3   3 1011.69    7.12   0
   2  -3   3  911.90    9.12   0
   2   3   3  908.68    7.89   0
   2   3   3  946.45   12.21   0
  -2  -3  -3  915.25    7.78   0
   3  -3   3 1430.86   12.44   0
   3   3   3 1480.19   12.26   0
   3  -3   3 1500.43    8.01   0
   3   3   3 1431.00    9.87   0
  -3  -3  -3 1535.56   12.27   0
  -3   3  -3 1554.75    8.15   0
   3  -3   3 1453.29   12.56   0
  -3  -3  -3 1460.62   10.10   0
   4   3   3  359.79    5.70   0
   4  -3   3  354.06    7.90   0
   4  -3   3  344.29    3.91   0
   4  -3   3  348.80    7.82   0
  -4   3  -3  357.26    3.96   0
  -4  -3  -3  369.86    5.68   0
   4   3   3  343.53    5.41   0
  -4  -3  -3  346.14    5.55   0
   5   3   3 1114.47    9.32   0
  -5  -3  -3 1202.54    8.73   0
   5   3   3 1123.07    8.20   0
  -5   3  -3 1206.99    6.86   0
   5  -3   3 1150.63    6.70   0
  -5  -3  -3 1136.64    9.68   0
  -6   3  -3  213.38    3.70   0
  -6  -3  -3  201.19    5.16   0
   6  -3   3  205.68    3.12   0
  -6  -3  -3  214.38    4.28   0
   7  -3   3  308.96    3.49   0
  -7  -3  -3  338.76    4.79   0
  -7   3  -3  315.61    3.55   0
  -7  -3  -3  299.61    6.06   0
   8  -3   3  119.22    3.37   0
  -8  -3  -3  116.25    5.79   0
  -8  -3  -3  116.16    5.94   0
  -8  -3  -3  115.11    3.53   0
  -8   3  -3  113.93    2.66   0
   9  -3   3    1.24    2.88   0
  -9  -3  -3    0.94    2.99   0
  -9   3  -3    1.86    3.02   0
  10  -3   3    2.85    3.10   0
 -10   3  -3    2.18    3.08   0
 -10  -3  -3    3.56    2.21   0
 -11  -3  -3   89.27    3.84   0
  11  -3   3   92.45    3.61   0
 -11   3  -3   88.76    3.69   0
 -13  -4   3  213.99    5.39   0
 -13  -4   3  213.55    5.12   0
 -13  -4   3  223.22    4.37   0
 -13   4   3  208.28    4.25   0
 -12   4   3   49.80    5.20   0
 -12  -4   3   52.69    4.43   0
 -12   4   3   46.75    2.47   0
 -12  -4   3   50.79    3.68   0
 -12  -4   3   50.84    2.60   0
 -11  -4   3   -0.00    3.03   0
 -11  -4   3    1.07    2.90   0
  11  -4  -3    1.12    3.71   0
 -11   4   3    2.55    2.15   0
 -11  -4   3    0.12    2.99   0
 -11   4   3    1.54    2.91   0
 -10  -4   3    7.41    2.06   0
  10  -4  -3    6.98    3.43   0
 -10   4   3    7.83    2.99   0
 -10   4   3    7.33    2.82   0
 -10  -4   3    5.64    2.99   0
 -10  -4   3    7.24    2.81   0
  -9  -4   3  196.98    4.14   0
  -9  -4   3  199.16    3.79   0
  -9   4   3  188.31    3.01   0
  -9  -4   3  186.24    3.91   0
  -9   4   3  189.93    4.36   0
   9  -4  -3  196.29    4.33   0
   8  -4  -3  245.37    4.49   0
  -8  -4   3  245.34    3.95   0
  -8  -4   3  225.24    3.58   0
  -8  -4   3  250.68    4.18   0
  -8   4   3  234.82    4.50   0
  -8   4   3  239.51    3.17   0
  -7  -4   3   83.19    2.64   0
  -7   4   3   87.83    2.99   0
   7  -4  -3   88.13    3.33   0
  -7   4   3   83.02    3.40   0
  -7  -4   3   82.41    3.14   0
  -6   4   3  830.56    5.51   0
  -6  -4   3  861.28    6.56   0
   6  -4  -3  856.34    6.91   0
  -6   4   3  801.70    7.06   0
  -5  -4   3  181.87    3.78   0
  -5   4   3  164.66    3.43   0
   5  -4  -3  177.47    3.48   0
  -5   4   3  176.49    3.12   0
  -4   4   3  553.85    5.24   0
   4  -4  -3  533.16    5.50   0
  -4  -4   3  548.39    5.21   0
  -4  -4   3  544.52    5.84   0
  -4   4   3  549.72    5.88   0
  -3   4   3   78.58    2.76   0
  -3  -4   3   81.15    2.68   0
  -3   4   3   76.16    2.72   0
  -3  -4   3   82.51    3.50   0
   3  -4  -3   83.25    3.26   0
  -2   4   3  146.04    3.80   0
  -2  -4   3  155.13    4.11   0
  -2   4   3  150.75    4.14   0
   2   4  -3  146.13    4.07   0
  -2  -4   3  148.26    3.65   0
   2  -4  -3  143.87    3.24   0
  -1   4   3  241.67    3.92   0
  -1   4   3  246.68    5.28   0
   1   4  -3  261.89    4.31   0
  -1  -4   3  248.12    4.00   0
   1  -4  -3  245.95    3.87   0
  -1  -4   3  269.40    4.30   0
   0   4   3 2677.66   22.67   0
   0  -4  -3 2737.80   12.10   0
   0   4  -3 2779.07   12.00   0
   0   4   3 2531.00   11.58   0
   0  -4   3 2726.41   11.77   0
   0  -4   3 2683.95   12.39   0
   1  -4   3  324.44    4.78   0
   1  -4   3  345.70    4.29   0
   1  -4   3  344.29    5.20   0
   1   4   3  317.12    4.46   0
  -1   4  -3  372.25    4.86   0
  -1  -4  -3  330.94    4.55   0
  -2  -4  -3   95.32    3.33   0
   2  -4   3   88.99    2.96   0
   2  -4   3   93.16    3.46   0
  -2  -4  -3   97.50    7.32   0
   2   4   3   89.59    2.81   0
  -2   4  -3   97.92    2.65   0
   2  -4   3   95.59    3.15   0
   3  -4   3 1139.19    9.93   0
  -3  -4  -3 1232.21   13.10   0
   3  -4   3 1131.42    6.62   0
  -3   4  -3 1153.07    6.62   0
   3   4   3 1081.50    7.72   0
  -3  -4  -3 1080.47    7.78   0
   3  -4   3 1104.91    9.62   0
   4  -4   3   55.37    3.81   0
  -4   4  -3   59.88    2.85   0
   4  -4   3   49.01    2.11   0
  -4  -4  -3   57.83    3.34   0
   4   4   3   49.86    2.98   0
   4  -4   3   53.60    3.35   0
  -4  -4  -3   53.78    3.05   0
   5   4   3  105.31    3.54   0
   5  -4   3  106.27    2.55   0
   5  -4   3  102.26    5.06   0
  -5   4  -3  113.53    2.66   0
   5  -4   3  104.15    5.06   0
  -5  -4  -3  108.16    3.53   0
  -5  -4  -3  114.40    3.72   0
   6   4   3   18.10    2.82   0
  -6  -4  -3   19.78    2.86   0
   6  -4   3   18.99    2.68   0
  -6  -4  -3   20.59    2.81   0
  -6   4  -3   16.87    2.05   0
  -7  -4  -3   22.17    2.94   0
  -7   4  -3   25.48    2.93   0
  -7  -4  -3   25.31    3.08   0
   7  -4   3   22.82    2.00   0
  -8  -4  -3    2.32    3.47   0
  -8   4  -3    3.09    2.78   0
  -8  -4  -3    3.98    2.76   0
  -8  -4  -3    3.71    3.46   0
   8  -4   3    3.86    2.82   0
  -9  -4  -3  430.76    8.44   0
  -9  -4  -3  417.64    8.62   0
  -9  -4  -3  442.99    5.34   0
  -9   4  -3  434.22    4.05   0
   9  -4   3  429.23    3.94   0
  10  -4   3   94.64    2.68   0
 -10   4  -3   99.21    3.56   0
 -10  -4  -3  100.34    3.75   0
 -11  -4  -3    9.27    3.33   0
 -11   4  -3    8.25    3.33   0
  11  -4   3   10.75    3.24   0
 -13  -5   3   56.60    3.60   0
 -13  -5   3   53.14    3.75   0
 -13   5   3   56.56    3.63   0
 -13  -5   3   51.74    3.85   0
 -12  -5   3  180.18    3.42   0
 -12   5   3  177.40    3.15   0
 -12   5   3  182.97    6.82   0
 -12  -5   3  190.11    4.61   0
 -12  -5   3  183.42    4.42   0
 -11  -5   3  313.85    4.55   0
  11  -5  -3  300.98    6.24   0
 -11   5   3  312.72    6.33   0
 -11  -5   3  322.27    4.99   0
 -11   5   3  299.21    3.54   0
 -11  -5   3  298.81    4.88   0
 -10  -5   3  327.40    4.75   0
 -10  -5   3  329.39    4.28   0
 -10   5   3  335.05    5.52   0
  10  -5  -3  338.20    5.85   0
 -10   5   3  336.35    3.60   0
 -10  -5   3  336.94    4.04   0
   9  -5  -3  459.59    5.79   0
  -9  -5   3  448.61    4.47   0
  -9  -5   3  476.61    5.25   0
  -9   5   3  457.62    5.83   0
  -9   5   3  455.39    3.98   0
  -9  -5   3  444.62    4.63   0
  -8  -5   3   98.44    2.68   0
  -8  -5   3  107.92    3.33   0
  -8  -5   3  101.53    3.24   0
  -8   5   3  104.06    3.59   0
   8  -5  -3  114.00    3.60   0
  -8   5   3  117.06    2.62   0
  -7  -5   3  279.71    4.15   0
  -7  -5   3  284.77    4.21   0
   7  -5  -3  284.01    4.59   0
  -7   5   3  274.93    3.31   0
  -7   5   3  276.91    4.57   0
   6  -5  -3  118.87    3.46   0
  -6  -5   3  118.37    3.21   0
  -6  -5   3  111.41    2.68   0
   6  -5  -3  121.11    2.67   0
  -6   5   3  119.59    3.23   0
  -6   5   3  117.60    3.38   0
  -5  -5   3 1110.86    7.08   0
   5  -5  -3 1088.83    7.29   0
   5  -5  -3 1198.76    6.76   0
  -5  -5   3 1124.38    7.62   0
  -5  -5   3 1141.00    7.13   0
  -5   5   3 1068.00    7.28   0
  -5   5   3 1128.60    6.59   0
  -4  -5   3  257.86    4.16   0
  -4  -5   3  254.17    3.64   0
   4  -5  -3  263.51    4.25   0
  -4  -5   3  264.20    3.69   0
  -4   5   3  261.06    4.33   0
   4  -5  -3  289.31    4.25   0
  -4   5   3  264.88    3.77   0
  -3   5   3  390.10    5.16   0
  -3  -5   3  394.16    5.31   0
  -3  -5   3  378.25    4.27   0
   3  -5  -3  375.35    4.78   0
   3  -5  -3  377.02    4.63   0
  -3   5   3  366.05    4.82   0
  -3  -5   3  362.19    4.18   0
   2  -5  -3   17.11    2.60   0
  -2  -5   3   18.80    2.18   0
   2   5  -3   17.80    2.19   0
  -2  -5   3   18.74    2.55   0
  -2   5   3   18.26    2.00   0
  -2   5   3   16.96    2.75   0
   1  -5  -3   42.81    2.80   0
  -1  -5   3   36.34    2.20   0
   1   5  -3   37.91    2.42   0
  -1   5   3   36.05    2.20   0
  -1  -5   3   41.05    2.37   0
  -1   5   3   41.60    3.14   0
   0  -5   3 2254.20   10.62   0
   0   5  -3 2481.56   11.03   0
   0   5   3 2252.00   10.36   0
   0   5   3 2287.83   19.35   0
   0  -5   3 2472.62   10.87   0
   0  -5  -3 2343.62   10.54   0
  -1   5  -3 5551.43   15.24   0
  -1  -5  -3 5474.17   15.87   0
   1  -5   3 5590.07   15.24   0
   1   5   3 5335.35   15.72   0
   1  -5   3 5236.57   16.56   0
  -2  -5  -3 1765.04    9.39   0
   2  -5   3 1710.64   10.16   0
   2   5   3 1588.58    8.67   0
   2  -5   3 1720.62    8.35   0
  -2   5  -3 1715.20    8.12   0
   3  -5   3  653.52    6.91   0
  -3  -5  -3  651.44    6.08   0
  -3   5  -3  656.62    4.98   0
   3  -5   3  649.53    6.92   0
   3  -5   3  647.82    4.96   0
  -3  -5  -3  713.62   15.26   0
   3   5   3  635.44    5.94   0
   4   5   3  145.57    3.63   0
   4  -5   3  150.09    4.11   0
   4  -5   3  149.86    4.15   0
  -4  -5  -3  160.25    5.28   0
  -4  -5  -3  153.08    3.73   0
  -4   5  -3  151.71    2.79   0
   4  -5   3  151.23    3.29   0
   5  -5   3  539.55    7.62   0
   5   5   3  532.48    5.86   0
  -5   5  -3  577.53    4.91   0
   5  -5   3  548.30    4.42   0
  -5  -5  -3  586.14    7.55   0
  -5  -5  -3  557.23    5.94   0
   5  -5   3  538.88    7.63   0
   6  -5   3   70.06    2.34   0
   6  -5   3   68.63    5.53   0
   6   5   3   67.05    3.25   0
  -6  -5  -3   75.62    3.43   0
   6  -5   3   69.05    5.17   0
  -6   5  -3   79.93    3.05   0
  -6  -5  -3   64.97    2.59   0
   7  -5   3    7.72    1.96   0
  -7  -5  -3    8.06    2.79   0
  -7  -5  -3    4.56    2.76   0
  -7   5  -3    7.39    2.01   0
  -8  -5  -3    1.86    2.81   0
   8  -5   3    3.44    2.84   0
  -8   5  -3    4.22    2.92   0
  -8  -5  -3    2.12    2.92   0
   9  -5   3    5.93    2.83   0
  -9   5  -3    5.46    2.09   0
  -9  -5  -3    4.19    3.74   0
  -9  -5  -3    3.94    3.77   0
  -9  -5  -3    4.88    3.06   0
 -10  -5  -3    5.87    4.72   0
 -10  -5  -3    4.01    3.22   0
  10  -5   3    5.64    3.10   0
 -10   5  -3    4.29    3.14   0
 -10  -5  -3    4.81    4.58   0
  11  -5   3    3.60    2.33   0
 -11  -5  -3    6.14    3.55   0
 -11   5  -3    5.34    3.47   0
 -13  -6   3   77.36    4.12   0
 -13   6   3   76.04    3.75   0
 -13  -6   3   79.29    3.95   0
 -13  -6   3   67.78    3.03   0
  12  -6  -3   57.16    5.24   0
 -12   6   3   56.82    4.78   0
 -12   6   3   56.42    3.45   0
 -12  -6   3   59.91    3.65   0
 -12  -6   3   57.53    3.56   0
 -12  -6   3   58.83    2.81   0
 -11  -6   3   61.26    2.64   0
 -11  -6   3   63.78    3.38   0
 -11   6   3   60.28    4.35   0
 -11  -6   3   59.19    2.74   0
 -11   6   3   61.39    3.36   0
  11  -6  -3   58.64    3.67   0
 -10   6   3    7.78    3.11   0
 -10  -6   3    7.71    2.95   0
  10  -6  -3    6.83    3.02   0
 -10  -6   3    5.22    3.04   0
 -10   6   3    9.52    2.95   0
 -10  -6   3    7.24    3.02   0
  -9   6   3  558.20    4.73   0
   9  -6  -3  585.95    6.28   0
  -9  -6   3  558.87    5.38   0
  -9  -6   3  567.63    5.48   0
  -9   6   3  563.41    6.26   0
  -9  -6   3  571.03    5.46   0
  -8  -6   3  388.85    4.64   0
  -8  -6   3  388.75    4.24   0
  -8   6   3  382.45    4.66   0
   8  -6  -3  412.62    5.33   0
  -8   6   3  395.61    3.80   0
  -7  -6   3   12.57    2.68   0
   7  -6  -3   13.76    2.78   0
  -7  -6   3   13.71    2.54   0
  -7   6   3   12.71    2.71   0
   7  -6  -3   16.58    2.68   0
  -7   6   3   15.43    2.63   0
  -7  -6   3   12.60    2.82   0
   6  -6  -3   44.60    2.94   0
  -6  -6   3   44.87    2.49   0
  -6  -6   3   42.89    2.69   0
   6  -6  -3   48.95    2.19   0
  -6   6   3   48.27    2.86   0
  -6   6   3   42.78    2.86   0
  -6  -6   3   43.63    2.74   0
   5  -6  -3   65.90    2.90   0
  -5  -6   3   59.96    2.88   0
  -5  -6   3   61.03    3.09   0
  -5  -6   3   58.35    2.88   0
  -5   6   3   56.82    2.94   0
   5  -6  -3   56.63    2.32   0
  -5   6   3   55.72    2.24   0
   4  -6  -3    1.45    1.77   0
   4  -6  -3    0.83    1.86   0
  -4  -6   3    1.56    2.38   0
  -4  -6   3    1.94    2.70   0
  -4   6   3    1.64    1.79   0
  -4   6   3    1.79    2.50   0
   3  -6  -3  550.90    5.25   0
  -3  -6   3  585.06    5.99   0
  -3  -6   3  549.25    5.07   0
  -3   6   3  527.90    4.96   0
   3   6  -3  527.03    5.58   0
  -3   6   3  558.43    5.70   0
   3  -6  -3  598.84    5.84   0
   2  -6  -3  126.69    3.63   0
   2   6  -3  125.72    3.69   0
  -2   6   3  110.71    2.75   0
  -2  -6   3  117.00    2.68   0
  -2  -6   3  123.33    3.10   0
   2  -6  -3  119.07    2.78   0
  -2   6   3  119.48    3.54   0
   1  -6  -3 1993.44    9.14   0
  -1  -6   3 2096.28   10.06   0
   1   6  -3 1953.22    9.77   0
  -1   6   3 1910.94   12.52   0
  -1   6   3 1861.96    8.68   0
  -1  -6   3 1900.84    8.94   0
   1  -6  -3 2067.14   13.06   0
   0  -6   3 2248.57   10.11   0
   0   6   3 2157.97    9.62   0
   0   6   3 2214.44   17.34   0
   0   6  -3 2367.44   10.36   0
   0  -6  -3 2362.38   10.00   0
   0  -6   3 2367.41   10.20   0
   1  -6   3   64.55    2.96   0
  -1   6  -3   77.40    2.49   0
   1  -6   3   60.90    3.12   0
   1   6   3   57.97    2.90   0
  -1  -6  -3   60.77    2.99   0
  -2   6  -3 1108.70    6.66   0
   2  -6   3 1015.32    7.28   0
   2   6   3 1010.69    6.83   0
  -2  -6  -3 1080.73    7.13   0
   2  -6   3 1023.58    6.17   0
   3  -6   3  934.14    7.53   0
  -3   6  -3  947.11    5.74   0
   3  -6   3  927.95    5.71   0
   3   6   3  907.15    6.60   0
  -3  -6  -3  935.64    6.46   0
  -4   6  -3   85.79    2.91   0
   4  -6   3   84.96    3.37   0
  -4  -6  -3   80.68    6.13   0
  -4  -6  -3   88.07    5.96   0
   4  -6   3   78.12    2.34   0
   4   6   3   79.99    3.11   0
  -4  -6  -3   85.28    3.09   0
  -5  -6  -3   13.13    2.77   0
   5  -6   3   12.80    2.57   0
   5   6   3   14.72    2.80   0
   5  -6   3   13.99    3.25   0
  -5   6  -3   14.91    2.62   0
  -5  -6  -3   14.81    3.45   0
   5  -6   3   13.61    3.25   0
  -6  -6  -3    2.24    3.21   0
  -6   6  -3    3.20    1.88   0
   6  -6   3    2.69    2.63   0
   6   6   3    0.15    2.64   0
   6  -6   3    1.42    3.20   0
  -6  -6  -3    1.40    1.84   0
   6  -6   3    0.84    3.22   0
   7  -6   3   15.99    2.05   0
  -7   6  -3   16.31    2.90   0
  -7  -6  -3   12.87    2.85   0
  -7  -6  -3   12.97    2.88   0
   8  -6   3  217.31    3.72   0
  -8  -6  -3  214.73    4.57   0
  -8   6  -3  207.24    3.12   0
  -8  -6  -3  202.63    4.54   0
  -9  -6  -3  246.61    5.59   0
  -9   6  -3  256.46    4.06   0
  -9  -6  -3  250.40    4.87   0
  -9  -6  -3  242.66    4.99   0
   9  -6   3  266.01    3.95   0
  10  -6   3  196.41    3.96   0
 -10  -6  -3  195.30    5.75   0
 -10  -6  -3  195.34    5.77   0
 -10   6  -3  203.46    3.28   0
 -10  -6  -3  201.21    4.64   0
 -11  -6  -3  192.46    4.12   0
  11  -6   3  212.89    3.41   0
 -11  -6  -3  222.50    8.58   0
 -11  -6  -3  215.71    8.31   0
 -11   6  -3  214.37    3.45   0
 -12   7   3    2.68    4.00   0
 -12  -7   3    3.55    3.34   0
  12  -7  -3    3.01    4.04   0
 -12  -7   3    1.52    3.18   0
 -12   7   3    2.73    3.39   0
 -12  -7   3    4.85    3.38   0
 -11  -7   3    7.17    3.00   0
  11  -7  -3    4.92    3.12   0
 -11   7   3    5.65    3.13   0
 -11  -7   3    6.51    3.14   0
 -11  -7   3    6.47    2.25   0
 -11   7   3    7.80    3.10   0
  10  -7  -3   23.93    3.26   0
 -10  -7   3   22.52    2.18   0
 -10  -7   3   23.43    2.39   0
 -10   7   3   22.04    3.24   0
 -10   7   3   20.31    2.21   0
 -10  -7   3   23.28    2.25   0
   9  -7  -3  120.05    3.76   0
  -9  -7   3  115.68    3.74   0
  -9   7   3  116.24    3.77   0
  -9   7   3  123.90    3.30   0
  -9  -7   3  116.00    3.49   0
  -9  -7   3  123.21    3.56   0
  -9  -7   3  110.93    2.82   0
   8  -7  -3   90.33    3.50   0
  -8  -7   3   90.87    3.24   0
  -8   7   3   88.43    3.11   0
  -8  -7   3   91.13    3.24   0
  -8   7   3   87.10    3.33   0
  -8  -7   3   89.00    3.40   0
   8  -7  -3   95.92    2.45   0
  -7  -7   3  241.21    3.37   0
   7  -7  -3  255.51    3.30   0
  -7   7   3  254.09    3.79   0
   7  -7  -3  241.21    3.67   0
  -7  -7   3  254.66    3.88   0
  -7   7   3  237.31    3.63   0
  -7  -7   3  244.42    3.74   0
   6  -7  -3  272.78    3.92   0
  -6  -7   3  256.89    4.37   0
   6  -7  -3  250.80    3.65   0
  -6  -7   3  252.18    3.31   0
  -6  -7   3  259.79    3.94   0
  -6   7   3  253.46    4.11   0
  -6   7   3  259.35    3.87   0
   5  -7  -3 1972.97    8.86   0
  -5  -7   3 2043.21    9.91   0
  -5  -7   3 2136.49    8.84   0
  -5   7   3 1982.74    8.92   0
  -5   7   3 2120.08    8.94   0
   5  -7  -3 2183.47    8.80   0
  -5  -7   3 2075.60    8.44   0
   4  -7  -3  462.72    4.82   0
   4  -7  -3  482.32    4.59   0
  -4  -7   3  454.98    4.27   0
  -4   7   3  461.64    4.57   0
  -4   7   3  460.79    4.86   0
  -4  -7   3  480.66    5.11   0
  -3   7   3   -0.14    2.57   0
   3   7  -3    2.28    2.67   0
  -3  -7   3    0.40    1.60   0
  -3   7   3    2.22    2.46   0
  -3  -7   3    0.37    1.88   0
   3  -7  -3   -0.08    1.81   0
   3  -7  -3   -0.89    2.39   0
   2  -7  -3   22.43    2.53   0
  -2  -7   3   19.35    1.81   0
  -2  -7   3   19.74    2.84   0
  -2   7   3   19.08    1.90   0
   2   7  -3   19.72    2.15   0
   2  -7  -3   20.80    2.62   0
  -2   7   3   19.16    2.65   0
   1  -7  -3   13.21    2.71   0
   1   7  -3   12.50    2.91   0
  -1  -7   3   12.09    2.48   0
  -1   7   3   12.42    2.46   0
   1  -7  -3   13.32    2.47   0
  -1   7   3   11.87    2.62   0
  -1  -7   3   12.60    2.77   0
   0   7  -3   75.59    3.15   0
   0  -7   3   71.61    2.97   0
   0  -7  -3   71.67    2.35   0
   0  -7   3   74.00    2.96   0
   0   7   3   64.06    2.85   0
   0   7   3   70.91    3.75   0
  -1   7  -3  696.34    5.31   0
   1  -7   3  664.36    5.51   0
   1   7   3  629.05    5.02   0
   1  -7   3  694.24    5.58   0
  -1  -7  -3  678.85    5.29   0
   2   7   3  303.85    4.19   0
  -2   7  -3  310.19    3.67   0
   2  -7   3  314.28    4.09   0
   2  -7   3  302.49    4.47   0
  -2  -7  -3  306.93    3.82   0
   3  -7   3  457.61    4.97   0
   3   7   3  466.37    4.82   0
   3  -7   3  491.12    4.74   0
  -3   7  -3  508.45    4.81   0
  -3  -7  -3  500.02    4.95   0
  -4   7  -3  359.57    4.07   0
   4  -7   3  330.70    4.46   0
   4   7   3  324.16    3.90   0
  -4  -7  -3  353.30    4.04   0
   4  -7   3  345.18    4.00   0
   5  -7   3  200.17    4.35   0
   5   7   3  185.55    3.24   0
  -5  -7  -3  205.23    3.86   0
   5  -7   3  203.49    4.37   0
  -5  -7  -3  217.28    7.87   0
   5  -7   3  206.52    3.44   0
  -5   7  -3  202.36    2.98   0
  -5  -7  -3  194.51    7.59   0
  -6  -7  -3  533.67    5.54   0
   6   7   3  491.98    5.34   0
   6  -7   3  524.74    7.08   0
  -6   7  -3  546.38    4.72   0
  -6  -7  -3  550.93    8.42   0
   6  -7   3  524.13    4.18   0
   6  -7   3  505.75    6.65   0
   7  -7   3  191.41    6.24   0
   7  -7   3  203.85    3.58   0
   7  -7   3  178.86    5.76   0
  -7   7  -3  187.93    2.98   0
  -7  -7  -3  199.49    4.91   0
  -7  -7  -3  181.98    3.41   0
  -8   7  -3   25.48    3.08   0
   8  -7   3   25.12    3.11   0
  -8  -7  -3   28.09    3.16   0
  -8  -7  -3   28.09    3.18   0
  -9  -7  -3   78.65    3.76   0
  -9   7  -3   80.09    2.61   0
  -9  -7  -3   77.83    3.76   0
   9  -7   3   83.74    3.40   0
  -9  -7  -3   85.44    3.92   0
 -10  -7  -3    8.69    3.34   0
  10  -7   3   13.15    3.27   0
 -10  -7  -3   10.32    3.45   0
 -10  -7  -3    9.04    3.30   0
 -10   7  -3   11.07    2.29   0
 -12  -8   3   35.30    3.48   0
 -12   8   3   36.23    4.38   0
 -12  -8   3   37.66    3.70   0
 -12   8   3   39.00    3.35   0
  12  -8  -3   33.72    3.63   0
 -12  -8   3   30.70    2.62   0
 -12  -8   3   33.07    2.60   0
 -11  -8   3   20.06    3.33   0
 -11  -8   3   19.46    3.27   0
  11  -8  -3   19.97    3.30   0
 -11   8   3   18.29    2.24   0
 -11  -8   3   20.10    2.30   0
 -11   8   3   18.32    3.34   0
 -11  -8   3   19.00    3.38   0
 -10   8   3   80.10    3.64   0
 -10  -8   3   82.18    3.63   0
 -10  -8   3   80.95    3.40   0
 -10  -8   3   80.89    2.75   0
 -10   8   3   91.23    3.34   0
 -10  -8   3   84.10    2.83   0
  10  -8  -3   83.12    3.72   0
  -9  -8   3   46.15    2.39   0
  -9  -8   3   47.09    3.41   0
  -9  -8   3   50.38    2.57   0
  -9  -8   3   48.37    3.05   0
  -9   8   3   44.91    2.55   0
  -9   8   3   50.46    3.14   0
   9  -8  -3   46.57    3.31   0
  -8  -8   3  161.58    3.29   0
  -8   8   3  159.05    3.23   0
  -8  -8   3  160.44    3.00   0
   8  -8  -3  177.43    3.51   0
   8  -8  -3  165.31    3.93   0
  -8  -8   3  161.70    3.56   0
  -8   8   3  163.98    3.54   0
   7  -8  -3   25.97    2.17   0
  -7  -8   3   25.98    2.20   0
  -7   8   3   27.14    2.18   0
   7  -8  -3   24.66    2.14   0
  -7  -8   3   26.32    2.76   0
  -7  -8   3   25.18    2.03   0
  -7   8   3   26.43    2.79   0
   6  -8  -3   37.13    2.15   0
  -6  -8   3   35.63    2.78   0
  -6  -8   3   38.25    2.99   0
  -6  -8   3   34.83    2.13   0
  -6   8   3   37.92    2.77   0
   6  -8  -3   35.01    2.77   0
  -6   8   3   38.86    2.86   0
  -5  -8   3   26.37    2.74   0
  -5  -8   3   26.86    2.27   0
  -5   8   3   22.53    2.06   0
   5  -8  -3   27.35    2.87   0
   5  -8  -3   24.91    1.97   0
  -5   8   3   23.49    1.97   0
   4  -8  -3  471.61    4.36   0
   4  -8  -3  525.41    5.06   0
  -4   8   3  469.81    4.51   0
  -4  -8   3  527.08    5.53   0
  -4  -8   3  473.75    4.29   0
  -4   8   3  464.07    4.39   0
   3  -8  -3 1382.85    8.12   0
  -3  -8   3 1346.64    7.88   0
  -3   8   3 1210.49    6.65   0
  -3  -8   3 1279.55    6.84   0
  -3   8   3 1289.60    7.84   0
   3   8  -3 1268.11    8.15   0
   3  -8  -3 1327.23    7.18   0
   2  -8  -3 1844.07   10.19   0
   2   8  -3 1694.65    8.83   0
  -2  -8   3 1712.60    7.62   0
  -2  -8   3 1855.55    9.24   0
  -2   8   3 1682.03    9.33   0
  -2   8   3 1708.15    8.01   0
   2  -8  -3 1733.28    7.77   0
  -1  -8   3 1717.32    8.59   0
  -1  -8   3 1556.90    7.37   0
  -1   8   3 1556.01    7.56   0
   1   8  -3 1640.95    8.65   0
   1  -8  -3 1580.38    7.40   0
   1  -8  -3 1687.46   10.86   0
  -1   8   3 1560.83   10.32   0
   0  -8  -3 1190.73   11.21   0
   0   8  -3 1184.97    7.16   0
   0  -8   3 1083.58    6.38   0
   0   8   3 1040.67    6.08   0
   0  -8   3 1132.83    6.63   0
   0   8   3 1108.85   10.49   0
   0  -8  -3 1088.33    6.18   0
   1   8   3  442.96   11.40   0
  -1   8  -3  458.09    4.37   0
   1  -8   3  451.62    4.30   0
  -1  -8  -3  452.95    4.23   0
   1   8   3  428.95    4.51   0
   1  -8   3  455.55    4.78   0
   2  -8   3 1380.30    7.50   0
  -2   8  -3 1516.23    7.44   0
   2   8   3 1313.98    6.85   0
  -2  -8  -3 1415.40    7.13   0
   2  -8   3 1486.40    7.34   0
  -3   8  -3  325.36    3.63   0
   3  -8   3  329.31    4.53   0
  -3  -8  -3  317.74    3.71   0
   3  -8   3  324.01    4.11   0
   3   8   3  315.76    4.07   0
   4   8   3  232.91    3.81   0
  -4  -8  -3  240.51    3.90   0
  -4   8  -3  242.82    3.13   0
   4  -8   3  237.88    4.18   0
   4  -8   3  242.85    3.66   0
  -5   8  -3   91.30    2.46   0
   5   8   3   83.27    2.53   0
   5  -8   3   85.52    3.38   0
  -5  -8  -3   94.58    3.27   0
   5  -8   3   97.18    3.01   0
  -6  -8  -3    6.82    5.24   0
  -6  -8  -3    6.09    1.99   0
  -6   8  -3    5.81    2.80   0
   6  -8   3    6.96    2.93   0
   6   8   3    6.08    2.84   0
   6  -8   3    7.28    3.47   0
  -6  -8  -3    7.22    4.70   0
   6  -8   3    6.73    1.93   0
   7  -8   3   20.57    3.81   0
  -7  -8  -3   17.28    3.00   0
  -7  -8  -3   22.00    4.40   0
  -7   8  -3   23.36    3.10   0
  -7  -8  -3   19.24    4.01   0
   7  -8   3   21.16    2.21   0
   7  -8   3   19.30    3.76   0
   8  -8   3  225.46    3.79   0
  -8  -8  -3  224.23    4.31   0
   8  -8   3  219.23    8.07   0
  -8  -8  -3  208.05    5.59   0
  -8   8  -3  226.88    3.18   0
  -8  -8  -3  229.10    5.98   0
   8  -8   3  212.37    7.92   0
  -9  -8  -3  278.25    4.91   0
  -9   8  -3  271.70    3.45   0
   9  -8   3  277.11    3.54   0
  -9  -8  -3  282.40    5.71   0
 -10  -8  -3  235.56    5.18   0
 -10  -8  -3  279.51    6.24   0
 -10  -8  -3  246.28    5.20   0
 -10   8  -3  271.92    4.34   0
  10  -8   3  254.12    3.57   0
 -12   9   3   33.13    2.61   0
 -12  -9   3   33.78    2.58   0
 -12  -9   3   43.69    3.71   0
 -12  -9   3   39.73    3.64   0
  12  -9  -3   37.61    4.29   0
 -12  -9   3   40.77    3.75   0
 -12   9   3   36.02    3.73   0
  11  -9  -3   65.21    3.95   0
 -11  -9   3   71.53    3.66   0
 -11  -9   3   70.05    3.77   0
 -11  -9   3   76.21    3.68   0
 -11  -9   3   66.31    2.75   0
 -11   9   3   66.91    4.57   0
 -11   9   3   71.37    3.49   0
 -10   9   3   16.36    3.27   0
 -10  -9   3   17.47    2.25   0
 -10   9   3   21.12    2.32   0
 -10  -9   3   20.05    2.36   0
 -10  -9   3   20.06    3.11   0
  10  -9  -3   19.38    3.27   0
 -10  -9   3   18.09    3.27   0
  -9  -9   3   61.45    2.49   0
   9  -9  -3   60.68    3.41   0
  -9  -9   3   58.60    2.65   0
   9  -9  -3   62.31    2.39   0
  -9   9   3   58.00    3.32   0
  -9  -9   3   59.65    3.50   0
  -9  -9   3   63.06    2.43   0
  -9   9   3   60.60    2.46   0
   8  -9  -3    1.39    1.94   0
  -8  -9   3    0.13    2.98   0
  -8  -9   3    2.54    2.80   0
  -8   9   3    0.92    1.95   0
  -8   9   3    1.39    2.86   0
   8  -9  -3    0.46    2.86   0
  -8  -9   3    0.44    1.89   0
  -7  -9   3   20.71    2.99   0
   7  -9  -3   21.27    2.11   0
  -7  -9   3   16.75    2.13   0
  -7   9   3   19.11    2.02   0
  -7   9   3   16.86    2.17   0
  -7  -9   3   19.11    2.12   0
   7  -9  -3   17.62    2.17   0
   6  -9  -3  317.96    3.80   0
  -6   9   3  323.26    4.31   0
  -6   9   3  335.27    4.19   0
  -6  -9   3  339.70    4.07   0
  -6  -9   3  348.46    4.82   0
   6  -9  -3  342.06    4.20   0
  -5   9   3  262.82    3.47   0
  -5  -9   3  286.23    4.48   0
   5  -9  -3  263.24    3.94   0
  -5   9   3  256.69    3.45   0
  -5  -9   3  268.48    3.38   0
   5  -9  -3  296.50    4.06   0
  -4   9   3  341.87    3.82   0
   4  -9  -3  388.81    4.53   0
  -4  -9   3  382.92    4.49   0
  -4   9   3  351.39    3.93   0
  -4  -9   3  373.31    4.21   0
   4  -9  -3  350.48    3.81   0
   3  -9  -3  680.60    5.89   0
  -3   9   3  614.76    4.74   0
  -3  -9   3  633.21    4.69   0
  -3  -9   3  690.64    6.07   0
  -3   9   3  634.09    5.73   0
   3  -9  -3  619.08    4.74   0
   3   9  -3  626.36    6.03   0
  -2  -9   3    2.62    1.80   0
  -2  -9   3    2.70    1.79   0
  -2   9   3    2.88    2.56   0
  -2   9   3    1.25    1.86   0
   2  -9  -3    2.15    1.82   0
   2   9  -3    2.01    2.62   0
   2  -9  -3    1.38    1.84   0
   1  -9  -3    4.00    2.56   0
  -1  -9   3    2.94    2.58   0
   1  -9  -3    3.10    1.80   0
   1   9  -3    3.04    2.58   0
  -1  -9   3    2.14    1.76   0
  -1   9   3    3.85    2.62   0
  -1   9   3    3.13    1.73   0
   0  -9  -3  194.80    5.09   0
   0  -9   3  186.60    3.55   0
   0   9   3  167.76    2.78   0
   0   9  -3  189.92    3.71   0
   0  -9  -3  186.80    2.95   0
   0   9   3  203.24    4.80   0
   0  -9   3  183.76    3.06   0
  -1  -9  -3    6.78    1.83   0
   1   9   3    6.51    3.52   0
  -1   9  -3    6.77    2.71   0
   1   9   3    5.03    1.83   0
   1  -9   3    7.08    1.84   0
   1  -9   3    7.15    1.89   0
   2   9   3  404.01    4.48   0
  -2   9  -3  421.48    4.04   0
  -2  -9  -3  430.39    4.15   0
   2  -9   3  416.75    4.02   0
   2  -9   3  403.67    4.17   0
   3  -9   3   49.50    2.86   0
  -3   9  -3   53.12    2.26   0
  -3  -9  -3   56.86    2.93   0
   3  -9   3   51.99    2.83   0
   3   9   3   51.15    2.90   0
   4  -9   3   38.53    2.23   0
   4  -9   3   39.93    2.06   0
  -4   9  -3   38.42    2.11   0
   4   9   3   40.26    2.13   0
  -4  -9  -3   42.57    2.25   0
   5  -9   3  321.51    3.44   0
   5  -9   3  308.97    4.72   0
   5   9   3  289.16    4.19   0
  -5   9  -3  312.40    3.37   0
  -5  -9  -3  312.32    3.76   0
   6   9   3  872.41    5.99   0
   6  -9   3  934.01    7.71   0
  -6   9  -3  968.43    5.37   0
   6  -9   3  960.54    5.36   0
  -6  -9  -3 1013.96    6.72   0
   7  -9   3  346.02    5.58   0
  -7   9  -3  359.64    3.66   0
   7  -9   3  343.67    5.64   0
   7  -9   3  365.69    3.67   0
  -7  -9  -3  379.27    4.84   0
   8  -9   3   76.03    4.81   0
  -8  -9  -3   81.36    6.53   0
  -8   9  -3   82.33    2.57   0
  -8  -9  -3   84.77    3.56   0
   8  -9   3   83.65    2.51   0
   8  -9   3   78.43    4.73   0
  -8  -9  -3   86.04    6.31   0
  -9  -9  -3  300.75    8.25   0
   9  -9   3  298.82    3.59   0
  -9   9  -3  294.68    3.60   0
  -9  -9  -3  308.29    7.70   0
  -9  -9  -3  292.45    5.03   0
 -10  -9  -3   95.90    3.99   0
 -10  -9  -3   89.54    5.46   0
 -10  -9  -3   78.90    4.05   0
 -10   9  -3   95.09    2.98   0
 -10  -9  -3   95.85    5.38   0
  10  -9   3  101.14    3.81   0
 -11 -10   3    1.08    2.36   0
 -11 -10   3    0.73    2.26   0
 -11  10   3    1.72    3.33   0
 -11 -10   3    1.76    3.30   0
 -11  10   3    4.11    2.47   0
 -11 -10   3    3.98    3.39   0
  11 -10  -3   -0.75    4.08   0
 -10  10   3   86.61    3.85   0
  10 -10  -3   82.92    3.82   0
 -10 -10   3   90.60    3.82   0
 -10 -10   3   89.19    3.80   0
 -10 -10   3   83.59    2.68   0
 -10  10   3   79.10    2.77   0
 -10 -10   3   89.63    3.54   0
  -9 -10   3    7.05    2.96   0
   9 -10  -3    6.13    3.05   0
  -9 -10   3    6.95    2.15   0
  -9 -10   3    9.78    3.14   0
  -9  10   3    7.00    3.11   0
   9 -10  -3    9.14    3.10   0
  -9  10   3    9.58    2.23   0
  -8 -10   3   61.21    3.13   0
  -8 -10   3   57.23    2.38   0
   8 -10  -3   58.76    3.31   0
  -8  10   3   59.80    3.28   0
  -8 -10   3   62.58    3.38   0
   8 -10  -3   62.02    3.10   0
  -8  10   3   58.41    3.15   0
   7 -10  -3  164.52    3.80   0
  -7 -10   3  166.25    3.50   0
   7 -10  -3  185.84    3.61   0
  -7 -10   3  159.72    3.38   0
  -7  10   3  159.56    3.75   0
  -7 -10   3  157.35    2.82   0
  -7  10   3  163.34    3.50   0
  -6 -10   3  639.56    6.14   0
  -6 -10   3  610.30    5.03   0
  -6  10   3  570.67    4.53   0
  -6  10   3  592.51    5.29   0
   6 -10  -3  617.39    4.58   0
   6 -10  -3  572.06    4.78   0
   5 -10  -3    7.25    1.98   0
  -5 -10   3   10.58    1.96   0
  -5  10   3    8.07    1.94   0
  -5 -10   3    8.04    2.81   0
  -5  10   3   28.64    2.86   0
   5 -10  -3    7.39    1.92   0
   4 -10  -3 2184.49    8.41   0
  -4  10   3 2098.03    8.15   0
  -4  10   3 2248.41    9.31   0
  -4 -10   3 2214.57    8.03   0
  -4 -10   3 2442.31   10.56   0
   4 -10  -3 2325.11    9.17   0
  -3 -10   3 1346.85    6.39   0
   3  10  -3 1288.67    7.66   0
  -3  10   3 1344.76    7.75   0
  -3  10   3 1320.96    6.92   0
   3 -10  -3 1380.51    7.59   0
  -3 -10   3 1448.86    8.17   0
   3 -10  -3 1399.23    7.05   0
  -2 -10   3 1081.35    6.73   0
   2 -10  -3 1106.63    7.70   0
  -2  10   3 1024.14    6.10   0
  -2  10   3  992.02    6.95   0
   2 -10  -3 1065.24    6.18   0
  -2 -10   3 1018.53    5.67   0
   2  10  -3 1048.63    7.04   0
   1 -10  -3  193.26    4.19   0
  -1 -10   3  184.71    3.45   0
   1  10  -3  185.98    3.74   0
  -1  10   3  182.06    4.11   0
  -1 -10   3  195.76    3.67   0
   1 -10  -3  190.08    2.89   0
  -1  10   3  173.70    2.86   0
   0 -10  -3  152.70    4.29   0
   0  10   3  135.93    2.59   0
   0 -10   3  154.41    3.43   0
   0 -10   3  148.58    2.81   0
   0 -10  -3  146.73    2.67   0
   0  10   3  149.39    4.73   0
   0  10  -3  151.14    3.50   0
  -1 -10  -3  407.19    8.17   0
   1  10   3  356.57    3.61   0
  -1 -10  -3  399.99    4.22   0
   1  10   3  376.37    7.95   0
  -1  10  -3  394.36    4.00   0
   1 -10   3  388.13    4.36   0
   1 -10   3  392.81    3.94   0
   2  10   3   20.01    2.03   0
   2 -10   3   24.24    2.69   0
  -2  10  -3   64.08    2.33   0
  -2 -10  -3   19.03    1.97   0
   2 -10   3   23.30    2.70   0
  -3  10  -3   73.76    2.45   0
   3  10   3   74.99    3.01   0
   3 -10   3   74.69    3.10   0
   3 -10   3   70.26    2.41   0
  -3 -10  -3   74.08    3.03   0
  -4  10  -3   47.89    2.22   0
   4 -10   3   52.00    3.01   0
   4 -10   3   47.71    2.19   0
  -4 -10  -3   46.61    2.29   0
   4  10   3   47.87    2.90   0
   5  10   3  148.83    2.86   0
  -5  10  -3  160.31    3.50   0
   5 -10   3  148.62    3.17   0
   5 -10   3  160.84    3.44   0
  -5 -10  -3  158.88    2.92   0
   6  10   3   92.84    3.43   0
  -6  10  -3   96.61    2.61   0
  -6 -10  -3   96.51    3.43   0
   6 -10   3   93.66    3.65   0
   6 -10   3  102.95    3.26   0
  -7 -10  -3   74.63    3.43   0
   7 -10   3   69.90    3.59   0
   7 -10   3   74.23    3.21   0
  -7  10  -3   72.72    2.50   0
   7 -10   3   66.22    3.60   0
  -8 -10  -3   90.56    2.95   0
   8 -10   3   89.32    4.06   0
   8 -10   3   94.11    4.02   0
  -8  10  -3  104.53    3.54   0
   8 -10   3   99.98    2.65   0
   9 -10   3  273.73    4.20   0
  -9 -10  -3  259.19    4.73   0
  -9  10  -3  289.53    4.29   0
   9 -10   3  265.01    8.99   0
   9 -10   3  248.53    8.77   0
 -11 -11   3   24.79    2.53   0
 -11 -11   3   26.66    3.63   0
 -11  11   3   28.39    3.61   0
 -11 -11   3   26.66    3.63   0
 -11 -11   3   23.00    3.51   0
  11 -11  -3   27.88    3.53   0
 -11  11   3   30.15    3.54   0
 -10 -11   3   15.09    3.34   0
 -10 -11   3   15.85    2.45   0
  10 -11  -3   14.95    3.42   0
 -10 -11   3   15.81    3.25   0
 -10  11   3   17.46    3.24   0
 -10  11   3   15.21    3.41   0
 -10 -11   3   15.38    3.41   0
  -9 -11   3    9.00    2.18   0
   9 -11  -3   10.84    2.27   0
  -9 -11   3    9.31    3.25   0
  -9 -11   3    9.11    3.08   0
  -9  11   3   11.04    3.20   0
   9 -11  -3    8.81    3.22   0
  -9  11   3   11.12    2.36   0
   8 -11  -3   45.93    2.30   0
   8 -11  -3   41.81    3.33   0
  -8  11   3   41.35    3.34   0
  -8 -11   3   41.02    2.31   0
  -8 -11   3   43.54    2.38   0
  -8  11   3   43.06    3.33   0
  -8 -11   3   46.93    3.40   0
   7 -11  -3  136.16    3.72   0
  -7 -11   3  154.23    3.57   0
  -7  11   3  141.58    3.06   0
  -7 -11   3  161.56    3.99   0
  -7 -11   3  156.46    3.54   0
  -7  11   3  146.30    2.91   0
   7 -11  -3  154.78    2.82   0
   6 -11  -3   30.29    2.89   0
  -6  11   3   26.84    2.95   0
   6 -11  -3   24.66    2.87   0
  -6  11   3   27.82    3.00   0
  -6 -11   3   27.05    2.90   0
  -6 -11   3   29.26    3.11   0
   5 -11  -3    5.27    2.04   0
  -5 -11   3    5.40    2.85   0
  -5  11   3    5.52    2.05   0
   5 -11  -3    3.94    2.00   0
  -5 -11   3    6.22    1.89   0
  -5  11   3    4.83    1.97   0
  -4 -11   3  229.21    3.10   0
   4 -11  -3  254.46    4.05   0
  -4 -11   3  242.42    3.68   0
  -4  11   3  223.10    3.18   0
  -4  11   3  237.13    3.99   0
   4 -11  -3  226.99    3.14   0
  -3 -11   3   14.46    1.91   0
  -3  11   3   13.14    2.75   0
  -3 -11   3   13.02    2.17   0
   3  11  -3   12.93    2.93   0
  -3  11   3   13.28    2.79   0
   3 -11  -3   14.91    2.89   0
   3 -11  -3   14.18    1.98   0
   2 -11  -3   58.31    3.07   0
  -2  11   3   48.34    2.74   0
   2  11  -3   53.30    2.37   0
   2 -11  -3   54.31    2.22   0
  -2 -11   3   54.35    2.11   0
  -2 -11   3   55.16    2.29   0
  -2  11   3   58.78    2.47   0
  -1  11   3    7.85    2.75   0
   1  11  -3    6.94    2.80   0
  -1 -11   3    8.01    2.66   0
  -1  11   3    7.63    1.85   0
   1 -11  -3    9.10    2.72   0
  -1 -11   3    9.70    2.63   0
   1 -11  -3    6.88    1.82   0
   0 -11  -3  142.07    4.17   0
   0  11  -3  138.79    2.86   0
   0  11   3  143.09    4.23   0
   0  11   3  128.97    2.54   0
   0 -11   3  143.15    2.81   0
   0 -11  -3  139.21    2.64   0
   0 -11   3  144.70    3.33   0
  -1 -11  -3  112.51    4.79   0
   1  11   3  103.69    4.88   0
   1 -11   3  108.71    3.17   0
   1  11   3   97.35    2.40   0
  -1  11  -3  113.90    3.29   0
  -1 -11  -3  105.55    2.46   0
   1 -11   3  106.38    3.13   0
   2  11   3  160.42    2.87   0
  -2  11  -3  179.81    3.52   0
   2 -11   3  167.65    2.85   0
   2 -11   3  171.84    3.57   0
  -2 -11  -3  172.44    2.91   0
   3 -11   3  430.65    4.45   0
   3 -11   3  411.98    4.17   0
  -3 -11  -3  418.26    3.97   0
   3  11   3  384.30    3.85   0
  -3  11  -3  418.64    3.95   0
   4 -11   3   35.76    2.18   0
   4 -11   3   40.45    2.29   0
  -4  11  -3   38.45    2.32   0
   4  11   3   36.12    2.24   0
  -4 -11  -3   36.40    2.93   0
   5  11   3  152.72    3.01   0
   5 -11   3  165.67    3.24   0
  -5  11  -3  178.72    3.58   0
  -5 -11  -3  170.74    3.01   0
   5 -11   3  165.80    2.82   0
  -6  11  -3   73.20    2.49   0
  -6 -11  -3   77.41    3.38   0
   6 -11   3   68.72    3.50   0
   6  11   3   66.56    3.38   0
   6 -11   3   70.63    2.49   0
   7 -11   3    4.48    3.15   0
  -7  11  -3    6.05    2.34   0
  -7 -11  -3    2.90    2.26   0
   7 -11   3    3.57    3.08   0
   7 -11   3    5.48    3.15   0
   8 -11   3   30.80    3.56   0
  -8  11  -3   34.27    3.35   0
   8 -11   3   32.44    4.27   0
  -8 -11  -3   33.09    3.38   0
   8 -11   3   30.56    2.35   0
   9 -11   3    2.42    4.07   0
   9 -11   3    3.87    4.36   0
   9 -11   3    5.11    2.26   0
  -9 -11  -3    4.91    3.23   0
  -9  11  -3    5.35    2.35   0
 -10 -12   3   12.64    2.53   0
 -10 -12   3   16.21    3.32   0
 -10  12   3   15.73    3.53   0
 -10 -12   3   15.95    3.46   0
  10 -12  -3   13.93    2.50   0
 -10  12   3   17.23    2.43   0
 -10 -12   3   17.05    3.25   0
   9 -12  -3    6.64    2.27   0
  -9  12   3    0.76    3.22   0
  -9  12   3    5.48    2.30   0
  -9 -12   3    3.84    2.16   0
  -9 -12   3    2.85    3.29   0
   9 -12  -3    3.83    2.25   0
  -9 -12   3    4.35    3.11   0
   8 -12  -3   72.48    2.75   0
  -8  12   3   75.49    3.55   0
  -8 -12   3   83.32    3.25   0
   8 -12  -3   83.53    2.66   0
  -8 -12   3   88.08    3.76   0
  -8  12   3   72.72    2.65   0
  -8 -12   3   77.72    2.64   0
  -7 -12   3   76.11    3.62   0
   7 -12  -3   74.65    2.53   0
   7 -12  -3   73.32    3.34   0
  -7  12   3   64.97    2.56   0
  -7 -12   3   62.73    2.47   0
  -7  12   3   64.81    2.48   0
  -7 -12   3   67.86    2.39   0
   6 -12  -3  135.76    3.49   0
   6 -12  -3  148.01    3.55   0
  -6  12   3  133.56    3.55   0
  -6 -12   3  131.19    2.71   0
  -6 -12   3  139.19    3.25   0
  -6  12   3  129.04    2.83   0
   5 -12  -3 1062.40    6.34   0
   5 -12  -3 1070.15    6.14   0
  -5  12   3  999.53    6.01   0
  -5 -12   3 1059.96    6.04   0
  -5 -12   3 1077.94    7.02   0
  -5  12   3  971.25    5.80   0
  -4 -12   3  498.23    5.36   0
   4 -12  -3  508.78    5.05   0
  -4  12   3  446.93    4.05   0
  -4  12   3  467.86    4.95   0
  -4 -12   3  486.93    4.49   0
   4 -12  -3  474.01    4.13   0
  -3  12   3  652.28    5.16   0
  -3  12   3  671.15    5.74   0
  -3 -12   3  709.94    5.94   0
  -3 -12   3  653.58    4.50   0
   3  12  -3  617.04    5.41   0
   3 -12  -3  677.54    5.37   0
   3 -12  -3  668.52    5.16   0
  -2  12   3  619.35    5.01   0
  -2 -12   3  640.09    4.54   0
  -2  12   3  649.47    6.10   0
   2  12  -3  636.24    5.77   0
  -2 -12   3  675.64    5.71   0
   2 -12  -3  695.11    6.33   0
   2 -12  -3  647.75    4.57   0
  -1  12   3  189.57    3.48   0
   1 -12  -3  207.29    4.28   0
  -1 -12   3  198.86    3.48   0
  -1 -12   3  198.47    3.20   0
   1  12  -3  192.68    3.90   0
  -1  12   3  198.89    4.27   0
   1 -12  -3  191.42    2.92   0
   0 -12  -3  139.96    4.08   0
   0  12  -3  143.15    3.56   0
   0 -12   3  130.23    2.64   0
   0  12   3  138.81    4.16   0
   0  12   3  122.85    3.22   0
   0 -12   3  139.17    3.46   0
   0 -12  -3  139.76    3.22   0
  -1 -12  -3    6.89    3.35   0
  -1 -12  -3    6.83    2.65   0
   1 -12   3    6.38    2.62   0
   1 -12   3    5.93    2.67   0
   1  12   3    6.69    3.67   0
  -1  12  -3    5.21    2.98   0
   1  12   3    7.07    2.70   0
   2  12   3   30.60    2.18   0
  -2  12  -3   27.51    2.99   0
  -2 -12  -3   31.14    2.87   0
   2 -12   3   31.68    2.87   0
   2 -12   3   29.26    2.13   0
   3  12   3  319.26    3.54   0
   3 -12   3  332.80    4.33   0
   3 -12   3  337.17    3.55   0
  -3  12  -3  341.60    3.66   0
  -3 -12  -3  339.42    4.19   0
  -4 -12  -3  336.11    4.22   0
   4 -12   3  338.69    4.54   0
   4  12   3  302.14    4.14   0
  -4  12  -3  322.23    3.54   0
   4 -12   3  331.03    3.57   0
   5  12   3    0.91    2.00   0
   5 -12   3    1.68    2.09   0
  -5  12  -3    0.04    3.05   0
  -5 -12  -3    2.89    2.84   0
   5 -12   3    1.44    2.07   0
   6 -12   3  154.99    3.91   0
   6 -12   3  166.51    3.72   0
  -6  12  -3  153.15    2.96   0
  -6 -12  -3  158.57    3.81   0
   6  12   3  138.76    3.03   0
  -7  12  -3  627.22    4.65   0
  -7 -12  -3  666.07    5.71   0
   7 -12   3  620.82    6.52   0
   7 -12   3  609.69    6.43   0
   7 -12   3  640.85    4.68   0
  -8  12  -3  168.60    3.14   0
   8 -12   3  169.05    4.66   0
   8 -12   3  158.97    4.65   0
   8 -12   3  195.77    3.93   0
  -8 -12  -3  195.18    4.19   0
 -10 -13   3    6.38    3.52   0
 -10 -13   3    4.54    3.23   0
 -10 -13   3    3.09    3.32   0
   9 -13  -3   11.50    3.31   0
   9 -13  -3   12.53    2.35   0
  -9 -13   3   13.15    2.40   0
  -9 -13   3   13.25    3.42   0
  -9  13   3    8.53    2.47   0
  -9 -13   3   13.12    3.26   0
  -9  13   3   10.02    3.40   0
  -8 -13   3  284.03    3.53   0
   8 -13  -3  282.44    4.60   0
  -8 -13   3  291.58    4.26   0
  -8 -13   3  305.48    5.25   0
   8 -13  -3  311.12    3.71   0
  -8  13   3  280.18    3.63   0
  -8  13   3  297.01    4.66   0
   7 -13  -3   15.53    3.25   0
   7 -13  -3   14.22    3.09   0
  -7  13   3   15.02    3.20   0
  -7 -13   3   15.80    3.18   0
  -7  13   3   20.03    3.16   0
  -7 -13   3   13.29    3.17   0
   6 -13  -3   77.65    2.63   0
  -6 -13   3   84.21    3.25   0
  -6 -13   3   83.44    2.89   0
  -6  13   3   83.23    3.39   0
  -6  13   3   83.30    3.41   0
   6 -13  -3   78.61    2.58   0
  -5 -13   3   57.89    3.28   0
  -5  13   3   48.20    3.33   0
  -5 -13   3   52.46    2.33   0
  -5  13   3   50.56    2.35   0
   5 -13  -3   60.26    3.16   0
   5 -13  -3   54.95    2.41   0
   4 -13  -3   99.14    2.76   0
  -4 -13   3   94.33    2.74   0
   4 -13  -3   92.53    3.15   0
  -4  13   3   88.61    2.46   0
  -4 -13   3   87.77    2.48   0
  -4  13   3   91.09    3.44   0
   3 -13  -3   97.94    3.50   0
   3 -13  -3   96.48    2.60   0
  -3  13   3   92.35    3.52   0
  -3  13   3   85.73    2.62   0
   3  13  -3   93.60    3.56   0
  -3 -13   3   98.64    3.35   0
  -3 -13   3   96.71    3.13   0
   2 -13  -3  715.54    5.88   0
  -2  13   3  639.01    4.63   0
   2 -13  -3  705.67    5.20   0
   2  13  -3  687.40    6.03   0
  -2 -13   3  719.14    5.11   0
  -2 -13   3  729.90    5.96   0
  -2  13   3  694.31    6.24   0
   1 -13  -3  271.43    4.68   0
  -1 -13   3  253.34    3.22   0
  -1  13   3  241.28    3.22   0
  -1  13   3  254.38    4.70   0
  -1 -13   3  255.74    3.48   0
   1 -13  -3  263.09    3.84   0
   1  13  -3  264.11    4.26   0
   0  13  -3   71.71    2.50   0
   0  13   3   67.77    3.10   0
   0  13   3   67.22    3.57   0
   0 -13  -3   75.39    2.38   0
   0 -13   3   70.47    3.12   0
   0 -13  -3   71.19    3.57   0
   0 -13   3   72.16    3.05   0
   1  13   3    0.24    3.68   0
  -1 -13  -3    1.29    3.53   0
   1  13   3    0.41    2.76   0
  -1  13  -3    3.65    2.11   0
   1 -13   3    0.03    1.94   0
  -1 -13  -3    1.17    2.04   0
   1 -13   3   -0.91    2.82   0
   2  13   3   -0.77    2.03   0
   2 -13   3    1.08    2.02   0
  -2  13  -3    1.02    2.83   0
  -2 -13  -3   -0.33    1.97   0
   2 -13   3    2.72    2.81   0
  -3  13  -3   17.18    2.20   0
   3  13   3   10.72    2.94   0
  -3 -13  -3   17.48    2.07   0
   3 -13   3   17.11    2.91   0
   3 -13   3   16.55    2.85   0
   4  13   3    0.31    2.12   0
   4 -13   3    2.56    2.13   0
  -4  13  -3    1.16    2.06   0
   4 -13   3    1.20    2.15   0
  -4 -13  -3    2.22    2.82   0
   5  13   3    6.69    3.09   0
   5 -13   3    7.65    2.13   0
  -5 -13  -3    7.87    2.18   0
   5 -13   3    9.18    2.21   0
  -5  13  -3    8.44    3.15   0
  -6  13  -3   36.65    2.51   0
   6  13   3   31.85    2.48   0
   6 -13   3   34.06    2.39   0
  -6 -13  -3   38.36    2.46   0
   6 -13   3   35.33    3.42   0
   7 -13   3   69.30    3.55   0
  -7  13  -3   58.75    3.67   0
   7 -13   3   59.02    3.81   0
  -7 -13  -3   64.90    3.52   0
   8 -13   3   37.47    2.71   0
  -8  13  -3   40.81    2.63   0
  -8 -13  -3   44.40    3.63   0
   9 -14  -3  181.54    4.13   0
  -9 -14   3  179.86    4.04   0
   9 -14  -3  171.19    4.24   0
  -9 -14   3  184.86    4.06   0
  -9  14   3  181.83    4.37   0
  -9 -14   3  174.28    4.93   0
  -9  14   3  190.13    4.24   0
   8 -14  -3   21.04    3.20   0
   8 -14  -3   19.76    2.44   0
  -8  14   3   17.95    2.51   0
  -8 -14   3   18.56    2.33   0
  -8  14   3   20.33    2.46   0
  -8 -14   3   19.70    3.38   0
  -8 -14   3   15.45    3.16   0
   7 -14  -3   12.64    2.29   0
   7 -14  -3   13.34    2.30   0
  -7 -14   3   16.75    2.22   0
  -7  14   3   15.37    3.39   0
  -7 -14   3   15.59    3.21   0
  -7  14   3   14.85    3.27   0
   6 -14  -3   22.03    2.37   0
  -6 -14   3   22.83    3.18   0
  -6 -14   3   16.88    2.11   0
  -6  14   3   20.48    2.33   0
   6 -14  -3   18.85    3.16   0
  -6  14   3   18.84    3.30   0
   5 -14  -3   54.84    2.54   0
  -5  14   3   51.63    3.28   0
  -5 -14   3   53.00    3.20   0
  -5 -14   3   58.45    3.39   0
  -5  14   3   56.98    3.38   0
   5 -14  -3   49.93    2.41   0
   4 -14  -3   42.98    2.42   0
  -4  14   3   42.98    3.27   0
  -4  14   3   42.57    3.18   0
  -4 -14   3   43.14    2.99   0
  -4 -14   3   41.19    3.22   0
   4 -14  -3   46.82    2.33   0
   3 -14  -3  563.59    5.08   0
  -3  14   3  511.29    4.22   0
   3  14  -3  518.52    5.69   0
  -3 -14   3  539.27    4.20   0
  -3 -14   3  543.70    4.93   0
  -3  14   3  538.29    5.50   0
   3 -14  -3  556.31    4.40   0
   2 -14  -3  378.88    4.56   0
  -2  14   3  375.10    5.04   0
   2  14  -3  375.73    4.96   0
  -2 -14   3  382.62    4.22   0
  -2 -14   3  386.51    3.72   0
   2 -14  -3  383.65    3.75   0
  -2  14   3  372.32    4.34   0
  -1  14   3  279.62    4.00   0
  -1 -14   3  290.54    3.37   0
   1 -14  -3  317.66    5.05   0
   1 -14  -3  303.95    3.44   0
  -1 -14   3  298.46    3.81   0
  -1  14   3  300.45    5.01   0
   1  14  -3  280.00    3.89   0
   0 -14  -3  203.24    4.65   0
   0  14   3  194.00    4.67   0
   0  14   3  176.78    2.91   0
   0 -14   3  195.91    2.99   0
   0  14  -3  193.16    3.99   0
   0 -14   3  196.32    3.16   0
   0 -14  -3  207.82    3.59   0
  -1 -14  -3  146.85    5.57   0
   1 -14   3  145.34    3.51   0
   1  14   3  126.11    2.69   0
  -1  14  -3  133.17    2.96   0
   1 -14   3  136.37    2.71   0
  -1 -14  -3  147.07    3.44   0
   1  14   3  131.44    5.21   0
   2  14   3   98.90    2.64   0
  -2 -14  -3  109.68    2.67   0
   2 -14   3  103.89    2.69   0
  -2  14  -3  120.41    3.60   0
   2 -14   3  111.70    3.36   0
   3 -14   3   54.07    3.28   0
   3  14   3   52.21    3.27   0
  -3  14  -3   56.32    2.46   0
  -3 -14  -3   57.79    2.39   0
   3 -14   3   54.73    2.40   0
   4  14   3  135.09    3.63   0
   4 -14   3  150.83    3.83   0
  -4  14  -3  143.92    3.08   0
  -4 -14  -3  147.41    2.98   0
   4 -14   3  149.69    3.71   0
   5  14   3   87.11    3.53   0
  -5  14  -3  101.78    3.64   0
   5 -14   3   94.41    3.79   0
  -5 -14  -3  105.25    3.53   0
   5 -14   3   95.44    2.75   0
  -6 -14  -3    3.98    3.17   0
  -6  14  -3    1.29    2.24   0
   6  14   3    1.36    2.33   0
   6 -14   3    1.54    2.33   0
   6 -14   3   -0.16    2.34   0
  -7  14  -3   41.47    3.56   0
  -7 -14  -3   44.31    3.52   0
   7 -14   3   38.52    3.67   0
   7 -14   3   46.96    3.42   0
   8 -15  -3    0.52    2.35   0
   8 -15  -3    0.13    3.40   0
  -8  15   3    0.83    3.49   0
  -8 -15   3    1.82    3.33   0
  -8 -15   3    4.75    3.21   0
  -8 -15   3   -0.79    2.25   0
  -8  15   3    1.19    2.46   0
  -7 -15   3   61.52    3.74   0
   7 -15  -3   52.45    2.71   0
  -7 -15   3   60.65    2.52   0
  -7  15   3   51.81    2.75   0
   7 -15  -3   58.75    3.53   0
  -7  15   3   52.18    2.71   0
   6 -15  -3   21.86    2.32   0
   6 -15  -3   22.56    2.37   0
  -6  15   3   19.97    2.36   0
  -6 -15   3   22.49    3.14   0
  -6 -15   3   23.73    3.24   0
  -6  15   3   20.31    3.24   0
   5 -15  -3    6.29    3.11   0
   5 -15  -3    7.86    3.11   0
  -5 -15   3    7.84    2.18   0
  -5  15   3    5.33    2.28   0
  -5  15   3    3.57    2.30   0
  -5 -15   3    4.05    3.08   0
  -4  15   3   14.43    2.32   0
  -4 -15   3   16.30    2.21   0
   4 -15  -3   16.70    3.12   0
  -4  15   3   14.70    2.35   0
  -4 -15   3   15.40    3.10   0
   4 -15  -3   14.88    2.30   0
   3 -15  -3   -0.73    2.97   0
  -3  15   3    0.73    2.17   0
  -3 -15   3   -0.03    3.02   0
   3  15  -3    0.61    3.34   0
  -3  15   3    0.31    3.06   0
   3 -15  -3   -1.52    3.08   0
  -3 -15   3    3.42    2.81   0
   2 -15  -3   53.37    3.19   0
   2 -15  -3   53.64    2.57   0
  -2  15   3   47.85    2.52   0
  -2 -15   3   55.18    3.30   0
  -2  15   3   49.92    3.45   0
   2  15  -3   47.46    2.67   0
  -2 -15   3   52.31    2.32   0
   1 -15  -3   84.42    3.73   0
  -1  15   3   74.11    2.53   0
   1  15  -3   74.06    3.63   0
  -1 -15   3   86.09    3.26   0
  -1 -15   3   79.02    2.64   0
   1 -15  -3   88.16    3.28   0
  -1  15   3   80.67    3.82   0
   0  15   3    0.44    2.11   0
   0  15   3    0.91    3.21   0
   0 -15  -3   -1.05    3.69   0
   0  15  -3    0.88    3.20   0
   0 -15   3    1.41    2.13   0
   0 -15   3   -0.75    2.95   0
   0 -15  -3   -0.51    2.70   0
   1  15   3    4.58    2.08   0
   1  15   3    6.94    4.07   0
   1 -15   3    9.57    3.07   0
  -1  15  -3    7.90    2.28   0
  -1 -15  -3    6.83    2.96   0
   1 -15   3    7.50    2.14   0
   2  15   3   -0.88    2.15   0
  -2  15  -3    1.37    3.28   0
   2 -15   3    2.20    2.05   0
  -2 -15  -3   -0.44    2.08   0
   2 -15   3    1.50    2.97   0
  -3  15  -3    8.62    2.30   0
   3  15   3    7.21    2.30   0
   3 -15   3    9.87    3.11   0
  -3 -15  -3   12.13    3.07   0
   3 -15   3   10.82    3.00   0
   4  15   3    0.79    2.35   0
   4 -15   3    1.10    2.26   0
  -4  15  -3    1.51    2.23   0
  -4 -15  -3    2.27    2.13   0
   4 -15   3    1.36    2.16   0
   5  15   3   40.38    2.60   0
   5 -15   3   48.18    2.53   0
  -5  15  -3   55.82    3.60   0
   5 -15   3   52.25    3.54   0
  -5 -15  -3   53.20    3.44   0
  -6  15  -3   38.51    2.67   0
   6 -15   3   37.85    2.63   0
  -6 -15  -3   39.85    3.37   0
   6 -15   3   37.00    3.58   0
  -7 -16   3    5.64    3.18   0
   7 -16  -3    2.77    2.34   0
  -7  16   3    5.53    3.44   0
  -7  16   3    4.19    2.40   0
  -7 -16   3    3.68    3.35   0
  -7 -16   3    1.98    2.37   0
   7 -16  -3    2.45    2.32   0
  -6  16   3    1.16    2.40   0
   6 -16  -3    0.54    3.27   0
  -6  16   3    3.62    3.44   0
  -6 -16   3    3.10    3.18   0
  -6 -16   3    2.06    2.35   0
   6 -16  -3    0.80    2.34   0
   5 -16  -3   58.03    3.35   0
  -5  16   3   58.09    3.64   0
   5 -16  -3   62.12    3.54   0
  -5 -16   3   53.83    3.31   0
  -5  16   3   53.72    3.51   0
  -5 -16   3   58.72    3.48   0
  -4  16   3   95.16    3.60   0
  -4 -16   3   93.50    3.37   0
  -4  16   3   90.10    3.70   0
   4 -16  -3   92.32    3.73   0
  -4 -16   3   97.00    3.82   0
   4 -16  -3   94.27    3.54   0
   3 -16  -3  428.75    5.23   0
  -3 -16   3  386.43    3.74   0
  -3  16   3  377.77    4.44   0
   3  16  -3  372.17    5.27   0
  -3  16   3  398.17    5.16   0
  -3 -16   3  418.04    5.15   0
   3 -16  -3  394.57    3.85   0
   2 -16  -3  208.54    4.39   0
  -2  16   3  170.54    3.13   0
   2 -16  -3  182.28    3.14   0
  -2  16   3  187.83    4.43   0
  -2 -16   3  194.76    4.14   0
  -2 -16   3  197.03    3.77   0
   2  16  -3  180.79    4.33   0
   1 -16  -3  297.14    5.11   0
   1  16  -3  260.64    4.56   0
  -1  16   3  246.66    3.45   0
  -1  16   3  273.95    5.15   0
  -1 -16   3  265.43    3.77   0
  -1 -16   3  262.93    3.40   0
   1 -16  -3  283.48    4.02   0
   0 -16   3  266.48    3.74   0
   0 -16  -3  306.73    6.06   0
   0 -16   3  283.87    4.08   0
   0  16   3  255.00    3.34   0
   0  16   3  281.25    6.08   0
   0  16  -3  288.42    4.59   0
   0 -16  -3  283.97    3.38   0
   1 -16   3  704.85    5.43   0
  -1  16  -3  626.62    5.11   0
   1  16   3  592.75    4.56   0
   1  16   3  615.13    9.21   0
  -1 -16  -3  678.10    5.37   0
   1 -16   3  658.32    5.09   0
   2  16   3  110.79    3.64   0
  -2  16  -3  110.57    3.80   0
  -2 -16  -3  112.40    2.78   0
   2 -16   3  110.30    2.79   0
   2 -16   3  119.93    3.64   0
   3 -16   3  196.87    3.39   0
   3  16   3  182.92    3.13   0
  -3 -16  -3  221.99    3.95   0
  -3  16  -3  204.81    3.50   0
   3 -16   3  211.26    4.13   0
   4  16   3  135.94    3.95   0
  -4  16  -3  135.51    3.17   0
   4 -16   3  136.49    3.97   0
  -4 -16  -3  139.51    3.05   0
   4 -16   3  148.48    3.82   0
   5  16   3    1.03    3.43   0
  -5  16  -3    1.26    2.34   0
   5 -16   3    3.60    2.40   0
  -5 -16  -3    2.01    3.23   0
   5 -16   3    7.36    3.26   0
   5 -17  -3    1.78    2.36   0
   5 -17  -3    0.56    2.37   0
  -5  17   3    1.48    2.47   0
  -5 -17   3   -2.75    3.31   0
  -5  17   3    1.63    2.45   0
  -5 -17   3    1.47    3.20   0
   4 -17  -3   30.65    3.58   0
  -4  17   3   29.53    2.60   0
  -4 -17   3   27.61    3.27   0
  -4  17   3   32.18    3.60   0
  -4 -17   3   28.17    2.67   0
   4 -17  -3   30.31    3.26   0
   3 -17  -3   35.06    3.52   0
  -3  17   3   29.65    2.51   0
  -3 -17   3   31.02    2.39   0
  -3  17   3   34.23    3.57   0
   3 -17  -3   32.68    2.40   0
   3  17  -3   27.38    2.71   0
  -3 -17   3   32.02    3.43   0
  -2  17   3   70.38    3.68   0
   2  17  -3   67.09    2.99   0
   2 -17  -3   75.80    3.81   0
  -2 -17   3   72.82    2.61   0
  -2 -17   3   68.10    3.63   0
   2 -17  -3   77.57    2.77   0
  -2  17   3   75.47    3.94   0
   1 -17  -3   12.88    3.40   0
   1  17  -3   12.13    3.49   0
   1 -17  -3   14.70    3.28   0
  -1  17   3   10.10    2.31   0
  -1  17   3   11.69    3.61   0
  -1 -17   3   12.96    2.20   0
  -1 -17   3   12.33    2.34   0
   0  17   3  163.82    3.90   0
   0  17   3  160.40    4.91   0
   0 -17  -3  180.68    3.13   0
   0  17  -3  171.68    4.25   0
   0 -17   3  187.51    3.91   0
   0 -17   3  189.54    4.08   0
   1  17   3   21.75    4.66   0
  -1  17  -3   22.68    2.58   0
   1  17   3   19.03    2.39   0
   1 -17   3   23.43    3.30   0
  -1 -17  -3   23.16    3.19   0
   1 -17   3   25.16    3.29   0
   2  17   3   49.30    3.63   0
  -2 -17  -3   51.85    2.59   0
  -2  17  -3   53.62    2.84   0
   2 -17   3   54.04    2.70   0
   2 -17   3   59.31    3.59   0
   3  17   3   90.59    3.72   0
  -3  17  -3   99.24    3.88   0
  -3 -17  -3   99.56    3.73   0
   3 -17   3   92.08    2.90   0
   3 -17   3   89.18    2.91   0
   2 -18  -3  291.28    5.41   0
  -2  18   3  295.78    4.60   0
   2 -18  -3  285.93    3.68   0
  -2 -18   3  283.58    3.67   0
  -2  18   3  304.21    5.42   0
   2  18  -3  255.99    4.35   0
  -2 -18   3  317.82    4.98   0
   1 -18  -3  180.66    4.74   0
  -1  18   3  138.06    3.15   0
   1  18  -3  161.59    4.41   0
  -1 -18   3  157.01    3.53   0
   1 -18  -3  169.74    3.90   0
  -1 -18   3  161.79    3.15   0
  -1  18   3  158.01    4.83   0
   0 -18   3   36.83    3.52   0
   0 -18   3   34.80    3.42   0
   0  18   3   31.48    3.51   0
   0  18   3   31.75    3.91   0
   0  18  -3   35.93    3.81   0
   0 -18  -3   37.18    2.49   0
 -14   0   4    1.32    5.31   0
 -14   0   4    1.23    5.45   0
 -14   0   4    2.19    3.40   0
 -13   0   4   31.41    4.35   0
 -13   0   4   30.66    4.16   0
 -13   0   4   28.61    2.58   0
 -12   0   4   63.55    3.80   0
 -12   0   4   62.25    3.56   0
 -12   0   4   65.77    3.34   0
 -11   0   4  326.96    5.45   0
 -11   0   4  316.02    3.54   0
 -10   0   4   42.01    2.38   0
 -10   0   4   46.10    3.31   0
  -9   0   4    2.60    1.91   0
  -9   0   4    2.72    1.98   0
   9   0  -4    2.07    2.59   0
   8   0  -4  373.35    4.97   0
  -8   0   4  382.41    4.40   0
  -8   0   4  400.89    5.27   0
   7   0  -4 1065.68    7.55   0
  -7   0   4 1100.40    6.61   0
  -7   0   4 1149.47    8.07   0
   6   0  -4    2.24    1.75   0
  -6   0   4    4.38    2.46   0
   5   0  -4  153.44    3.27   0
  -5   0   4  162.39    3.38   0
  -4   0   4    1.39    1.91   0
   4   0  -4    1.73    2.57   0
   3   0  -4  295.05    4.40   0
  -3   0   4  301.02    4.51   0
   2   0  -4  262.76    4.32   0
  -2   0   4  258.15    4.63   0
  -2   0   4  273.02    4.81   0
   1   0  -4  936.08    7.87   0
  -1   0   4  965.33    8.22   0
   1   0  -4  859.39    8.40   0
  -1   0   4  896.99    8.56   0
   0   0  -4   19.70    2.85   0
   0   0   4   19.30    2.87   0
   0   0  -4   18.05    3.07   0
   0   0   4   20.16    3.00   0
   1   0   4 2660.78   14.46   0
  -1   0  -4 2766.05   13.60   0
  -1   0  -4 2780.35   14.84   0
   1   0   4 2671.20   13.31   0
   2   0   4 1159.51    8.37   0
  -2   0  -4 1196.45   10.48   0
   2   0   4 1113.42   10.10   0
  -2   0  -4 1265.70    8.81   0
  -3   0  -4 5442.65   16.26   0
   3   0   4 5408.48   16.50   0
  -4   0  -4 1001.58    6.78   0
  -4   0  -4 1007.85   12.07   0
   4   0   4  984.15    6.99   0
   4   0   4  946.33   11.78   0
  -5   0  -4 1067.90    6.65   0
  -5   0  -4  970.35   19.27   0
   5   0   4 1022.03    6.63   0
  -6   0  -4 1385.13    7.69   0
   6   0   4 1282.67    7.09   0
  -7   0  -4  135.24    3.48   0
   7   0   4  108.68    3.32   0
   8   0   4  961.65    6.35   0
  -8   0  -4 1004.40    6.44   0
   9   0   4    7.19    3.07   0
  -9   0  -4    6.30    2.14   0
  10   0   4   23.41    2.36   0
 -10   0  -4   26.21    2.41   0
 -11   0  -4   77.92    3.69   0
 -14  -1   4    0.10    4.85   0
 -14  -1   4    0.87    4.81   0
 -14  -1   4   -0.27    2.47   0
 -14   1   4    1.09    2.37   0
 -13   1   4   23.95    4.20   0
 -13  -1   4   22.99    3.64   0
 -13  -1   4   23.95    3.54   0
 -13   1   4   23.47    4.35   0
 -13   1   4   26.89    3.37   0
 -13  -1   4   27.41    3.40   0
 -12   1   4    1.66    3.84   0
 -12  -1   4    1.50    3.09   0
 -12  -1   4    0.73    3.01   0
 -12  -1   4    3.57    3.26   0
 -12   1   4   -0.91    3.03   0
 -11   1   4   27.98    3.22   0
 -11  -1   4   29.57    3.37   0
 -11   1   4   26.82    2.31   0
 -11  -1   4   30.84    3.16   0
 -10  -1   4  786.68    7.06   0
 -10   1   4  733.57    6.73   0
 -10  -1   4  774.20    5.56   0
 -10   1   4  788.02    5.52   0
  10  -1  -4  747.36    6.97   0
  -9   1   4   37.82    2.91   0
  -9  -1   4   35.80    2.24   0
  -9   1   4   38.72    3.13   0
  -9  -1   4   36.74    2.31   0
   9  -1  -4   36.06    2.94   0
   8   1  -4   64.39    3.11   0
   8  -1  -4   60.56    3.14   0
  -8   1   4   62.02    3.27   0
  -8  -1   4   66.62    3.13   0
  -8   1   4   59.74    2.97   0
  -8  -1   4   62.49    2.31   0
  -7   1   4  260.56    4.51   0
  -7   1   4  254.26    3.35   0
   7  -1  -4  249.92    4.27   0
   7   1  -4  241.04    4.17   0
  -7  -1   4  254.99    3.87   0
  -6  -1   4  393.73    4.66   0
  -6   1   4  393.89    4.51   0
   6  -1  -4  400.79    5.04   0
   6   1  -4  398.76    4.96   0
  -6   1   4  395.65    4.82   0
   5   1  -4  104.52    2.83   0
  -5  -1   4  110.96    3.45   0
  -5   1   4  106.43    2.93   0
   5  -1  -4  109.69    3.37   0
  -4  -1   4    1.90    1.90   0
  -4   1   4    2.09    2.73   0
   4   1  -4    1.45    2.63   0
   4  -1  -4    2.14    1.88   0
  -3  -1   4  259.17    4.15   0
  -3   1   4  253.68    4.22   0
   3  -1  -4  268.96    4.63   0
   3   1  -4  254.29    4.08   0
   2  -1  -4   41.99    2.41   0
  -2   1   4   43.48    3.08   0
  -2  -1   4   40.67    2.58   0
  -2  -1   4   43.38    3.06   0
   2   1  -4   42.44    2.42   0
  -1   1   4  260.62    4.47   0
  -1  -1   4  290.63    4.96   0
  -1   1   4  266.93    5.51   0
   1   1  -4  265.35    5.04   0
  -1  -1   4  271.99    4.64   0
   1   1  -4  277.57    4.84   0
   1  -1  -4  288.41    4.95   0
   0  -1   4  317.75    5.32   0
   0   1  -4  298.45    5.16   0
   0   1  -4  297.59    4.74   0
   0  -1  -4  294.16    5.79   0
   0   1   4  292.93    4.77   0
   0  -1  -4  303.12    4.86   0
   0   1   4  310.39    5.87   0
   0  -1   4  307.95    5.21   0
  -1  -1  -4 1027.39    9.40   0
   1   1   4  909.59    8.40   0
   1  -1   4  947.10    7.49   0
  -1  -1  -4 1004.11    8.89   0
  -1   1  -4  974.65    8.99   0
   1  -1   4  985.71    9.04   0
  -1   1  -4 1006.19    7.77   0
   1   1   4  952.94    8.69   0
  -2  -1  -4  358.92    5.51   0
   2   1   4  311.80    5.41   0
  -2   1  -4  342.87    6.06   0
   2   1   4  339.33    5.25   0
  -2  -1  -4  356.00    5.85   0
   2  -1   4  345.52    6.07   0
  -2   1  -4  354.79    4.61   0
   2  -1   4  337.54    4.80   0
  -3  -1  -4   11.92    2.03   0
  -3  -1  -4   12.38    2.64   0
   3  -1   4   12.08    1.98   0
   3  -1   4   11.45    2.81   0
   3   1   4   11.66    2.69   0
   3   1   4   11.75    2.46   0
  -3   1  -4   11.22    2.81   0
  -3   1  -4   11.80    3.36   0
  -4   1  -4  102.02    2.69   0
   4   1   4   95.04    3.29   0
   4   1   4   91.96    3.91   0
  -4  -1  -4   98.84    3.37   0
   4  -1   4   82.88    4.87   0
  -4  -1  -4  105.11    4.58   0
   4  -1   4   95.15    2.62   0
  -5  -1  -4  102.23    4.90   0
   5   1   4   98.82    4.84   0
  -5  -1  -4  103.29    2.81   0
   5   1   4  103.15    3.31   0
   5  -1   4  101.51    2.56   0
  -5   1  -4  105.28    2.64   0
   6   1   4  127.18    2.95   0
  -6   1  -4  133.97    3.44   0
  -6  -1  -4  130.89    2.97   0
   6  -1   4  123.32    2.75   0
   7   1   4    4.23    2.69   0
  -7   1  -4    2.80    2.02   0
   7  -1   4    4.10    2.74   0
  -7  -1  -4    3.28    2.84   0
   8  -1   4   11.92    2.89   0
   8   1   4   10.09    2.17   0
  -8  -1  -4   12.64    2.97   0
  -8   1  -4   12.97    2.06   0
   9  -1   4   15.42    2.24   0
   9   1   4   15.60    2.20   0
  -9   1  -4   15.62    3.10   0
  -9  -1  -4   16.34    2.27   0
  10  -1   4   12.59    2.27   0
 -10   1  -4   17.44    3.26   0
 -10  -1  -4   14.53    2.39   0
 -11  -1  -4   93.46    3.86   0
 -11   1  -4   95.61    3.71   0
 -13  -2   4   81.54    4.55   0
 -13  -2   4   86.19    4.26   0
 -13   2   4   82.56    3.55   0
 -13  -2   4   78.89    2.85   0
 -13   2   4   83.79    5.03   0
 -13   2   4   81.43    4.95   0
 -12  -2   4  129.87    4.06   0
 -12   2   4  141.94    3.63   0
 -12  -2   4  129.37    2.93   0
 -12   2   4  131.13    5.06   0
 -12  -2   4  137.98    4.35   0
 -11  -2   4  943.46    5.61   0
 -11   2   4  910.96    8.27   0
 -11  -2   4  912.71    7.50   0
  11  -2  -4  926.26    8.08   0
 -11   2   4  937.59    5.40   0
 -11  -2   4 1012.15    8.08   0
  10  -2  -4  468.83    6.17   0
 -10   2   4  454.02    5.85   0
 -10   2   4  474.77    4.15   0
 -10  -2   4  502.92    4.82   0
 -10  -2   4  510.56    5.85   0
  -9   2   4   84.65    3.25   0
  -9  -2   4   86.35    3.13   0
  -9   2   4   89.07    3.49   0
   9  -2  -4   88.44    3.45   0
  -9  -2   4   94.40    3.47   0
  -8   2   4  543.81    4.48   0
   8  -2  -4  528.75    5.36   0
  -8  -2   4  586.43    5.76   0
  -8  -2   4  543.24    4.63   0
  -8   2   4  541.01    5.58   0
  -7   2   4  320.30    3.71   0
   7  -2  -4  327.79    4.70   0
  -7   2   4  331.62    4.90   0
  -7  -2   4  340.82    4.62   0
   7   2  -4  307.03    4.05   0
  -6   2   4  335.05    3.88   0
  -6   2   4  343.09    4.92   0
   6   2  -4  323.27    4.13   0
  -6  -2   4  338.21    4.25   0
   6  -2  -4  339.11    4.38   0
  -5  -2   4   71.43    2.56   0
   5   2  -4   66.17    3.06   0
  -5   2   4   72.88    3.18   0
   5  -2  -4   72.71    3.08   0
  -5   2   4   66.60    2.39   0
   4  -2  -4 1919.85   10.02   0
   4   2  -4 1919.88    9.84   0
  -4   2   4 1926.20   10.42   0
  -4  -2   4 1928.26    9.79   0
  -3  -2   4  121.92    3.53   0
  -3   2   4  119.03    3.20   0
  -3  -2   4  118.88    3.26   0
   3  -2  -4  127.52    3.62   0
   3   2  -4  121.62    3.58   0
   2  -2  -4  592.40    5.99   0
  -2   2   4  586.78    6.27   0
   2   2  -4  554.77    5.96   0
   2   2  -4  561.63    5.75   0
  -2  -2   4  607.45    6.21   0
  -2  -2   4  586.74    6.40   0
   1   2  -4    2.24    1.82   0
  -1   2   4    1.97    2.68   0
  -1  -2   4    3.37    2.01   0
   1   2  -4    2.09    2.01   0
   1  -2  -4    5.85    1.92   0
  -1   2   4    2.33    2.92   0
  -1  -2   4    4.41    2.77   0
   0   2   4  246.46    4.28   0
   0  -2   4  269.68    4.55   0
   0   2  -4  277.60    4.37   0
   0  -2   4  286.04    4.77   0
   0   2   4  272.56    5.97   0
   0  -2  -4  253.37    5.45   0
   0   2  -4  266.17    4.51   0
   0  -2  -4  261.21    4.38   0
  -1  -2  -4 1317.56   11.72   0
   1  -2   4 1328.09   10.02   0
   1  -2   4 1281.10    8.34   0
   1   2   4 1254.60   11.12   0
  -1  -2  -4 1253.66    9.15   0
  -1   2  -4 1272.89    9.84   0
  -1   2  -4 1345.76    8.34   0
   1   2   4 1197.33    8.96   0
   2  -2   4 2576.70   14.72   0
  -2   2  -4 2474.15   14.53   0
  -2   2  -4 2673.19   11.22   0
  -2  -2  -4 2628.24   14.78   0
   2  -2   4 2465.73   10.56   0
  -2  -2  -4 2524.18   13.31   0
   2   2   4 2490.81   14.34   0
   2   2   4 2347.53   12.58   0
  -3  -2  -4  839.17    8.23   0
   3  -2   4  819.35    5.95   0
   3  -2   4  890.68   10.09   0
   3   2   4  795.54    7.83   0
  -3   2  -4  913.03    6.55   0
  -3  -2  -4  898.71    8.15   0
   3   2   4  841.41    7.85   0
   4   2   4  534.97    6.89   0
   4  -2   4  557.94   10.10   0
   4  -2   4  524.02    9.81   0
  -4  -2  -4  562.73    7.25   0
  -4   2  -4  596.79    5.31   0
  -4  -2  -4  586.92    6.32   0
   4  -2   4  537.98    4.76   0
   4   2   4  555.02    6.18   0
  -5   2  -4  370.41    3.91   0
   5   2   4  364.06    6.50   0
  -5  -2  -4  376.66    6.72   0
  -5  -2  -4  386.96    5.13   0
   5  -2   4  350.11    3.85   0
   5   2   4  355.11    4.55   0
   6   2   4   10.10    2.70   0
   6  -2   4    1.35    1.85   0
  -6  -2  -4    2.59    3.32   0
  -6  -2  -4    1.48    2.70   0
  -6   2  -4    4.26    2.69   0
   7  -2   4   -0.09    2.62   0
  -7  -2  -4    0.64    4.73   0
   7   2   4    1.30    2.75   0
  -7  -2  -4    0.97    4.80   0
  -7  -2  -4    4.76    2.75   0
  -7   2  -4    2.02    2.82   0
   8   2   4   16.15    3.04   0
   8  -2   4   15.59    2.02   0
  -8   2  -4   15.15    3.02   0
  -8  -2  -4   21.69    2.99   0
   9  -2   4   91.50    3.40   0
  -9   2  -4   86.11    2.69   0
  -9  -2  -4   84.90    2.77   0
  10  -2   4   94.32    2.78   0
 -10   2  -4   99.02    3.65   0
 -10  -2  -4  107.22    3.78   0
 -11   2  -4    6.82    2.34   0
  11  -2   4    9.27    2.35   0
 -11  -2  -4   11.27    3.44   0
 -13  -3   4   83.34    4.00   0
 -13   3   4   84.71    5.07   0
 -13   3   4   81.01    2.69   0
 -13  -3   4   82.52    4.24   0
 -13  -3   4   86.38    3.75   0
 -12  -3   4   11.00    3.18   0
 -12  -3   4    7.57    3.11   0
 -12  -3   4   10.28    3.20   0
 -12   3   4    8.08    3.27   0
 -12   3   4    6.38    3.30   0
 -11  -3   4   33.31    2.42   0
 -11  -3   4   30.46    2.37   0
 -11   3   4   33.24    3.22   0
  11  -3  -4   31.81    3.88   0
 -11   3   4   31.36    3.99   0
 -11  -3   4   34.59    3.36   0
 -10  -3   4  875.80    6.98   0
 -10  -3   4  782.97    6.56   0
  10  -3  -4  794.41    7.25   0
 -10   3   4  823.62    5.56   0
 -10  -3   4  791.07    5.45   0
 -10   3   4  771.95    7.38   0
  -9   3   4  385.47    5.28   0
  -9  -3   4  435.65    5.13   0
  -9  -3   4  397.31    4.01   0
   9  -3  -4  413.60    5.32   0
  -9   3   4  425.99    4.50   0
  -8   3   4  243.51    3.73   0
  -8   3   4  220.61    3.80   0
  -8  -3   4  236.21    3.67   0
   8  -3  -4  240.06    4.28   0
  -7   3   4  731.02    5.06   0
  -7  -3   4  735.09    5.71   0
   7  -3  -4  741.39    6.51   0
  -7   3   4  716.74    6.53   0
  -6   3   4  690.08    5.14   0
  -6   3   4  675.78    6.00   0
   6  -3  -4  698.66    5.96   0
  -6  -3   4  718.23    6.06   0
  -5   3   4 1021.03    7.50   0
   5  -3  -4 1027.18    7.37   0
  -5   3   4  999.58    6.53   0
  -5  -3   4 1042.23    7.24   0
  -4   3   4  572.54    5.73   0
  -4  -3   4  560.90    5.90   0
  -4  -3   4  562.93    5.25   0
   4  -3  -4  569.26    5.84   0
   4   3  -4  576.09    5.58   0
  -4   3   4  540.13    5.49   0
   3   3  -4   31.88    2.16   0
  -3   3   4   35.32    2.91   0
  -3  -3   4   33.85    3.10   0
  -3  -3   4   34.90    2.18   0
   3  -3  -4   33.12    2.93   0
  -2   3   4 1175.01    7.92   0
   2  -3  -4 1212.81    8.15   0
   2   3  -4 1255.01    8.15   0
   2   3  -4 1190.69    8.41   0
  -2  -3   4 1207.41    7.84   0
  -2  -3   4 1250.13    8.58   0
  -1   3   4  702.44    6.30   0
   1   3  -4  730.92    6.74   0
   1  -3  -4  706.76    6.29   0
  -1  -3   4  749.80    6.81   0
  -1  -3   4  793.89    6.88   0
   1   3  -4  734.40    6.43   0
   0  -3   4    1.94    1.92   0
   0  -3  -4    3.06    1.95   0
   0   3  -4    2.28    2.67   0
   0   3  -4    1.36    1.87   0
   0  -3   4    3.40    1.92   0
   0   3   4    2.62    2.80   0
   0   3   4    2.82    2.71   0
   1  -3   4  303.05    4.02   0
  -1   3  -4  306.17    4.15   0
  -1  -3  -4  300.92    6.86   0
   1   3   4  300.25    6.62   0
   1   3   4  274.33    4.60   0
   1  -3   4  298.48    5.01   0
  -1  -3  -4  284.15    4.32   0
   2  -3   4   56.51    3.09   0
  -2  -3  -4   52.74    2.37   0
  -2  -3  -4   61.82    3.70   0
   2   3   4   54.88    3.44   0
   2  -3   4   54.68    2.93   0
  -2   3  -4   59.12    2.38   0
   2   3   4   55.87    2.89   0
   3  -3   4   21.61    3.38   0
  -3  -3  -4   20.73    2.68   0
   3  -3   4   21.37    1.91   0
   3  -3   4   21.10    2.85   0
   3   3   4   18.31    2.00   0
  -3   3  -4   21.53    1.97   0
  -3  -3  -4   23.58    2.91   0
   3   3   4   21.01    2.85   0
   4   3   4  838.17    7.93   0
  -4  -3  -4  821.88    7.76   0
   4   3   4  794.42    7.50   0
   4  -3   4  836.25   10.44   0
   4  -3   4  817.12    5.50   0
  -4   3  -4  857.67    5.73   0
  -4  -3  -4  902.12    8.14   0
   4  -3   4  869.70   10.67   0
   5   3   4   63.61    3.10   0
  -5  -3  -4   64.14    3.24   0
   5   3   4   63.41    3.24   0
  -5   3  -4   67.61    2.99   0
  -5  -3  -4   70.25    3.17   0
   5  -3   4   64.32    2.89   0
   6   3   4  128.48    3.14   0
   6   3   4  120.05    4.08   0
  -6  -3  -4  131.16    4.24   0
  -6   3  -4  132.99    2.72   0
  -6  -3  -4  140.91    3.75   0
   6  -3   4  127.49    2.65   0
  -7  -3  -4   30.45    3.31   0
  -7  -3  -4   28.40    2.97   0
  -7   3  -4   29.40    2.90   0
   7  -3   4   31.49    2.89   0
   8  -3   4   88.25    2.62   0
  -8   3  -4   98.50    3.43   0
  -8  -3  -4   93.20    6.90   0
  -8  -3  -4   97.69    3.56   0
  -8  -3  -4   92.89    7.12   0
  -9  -3  -4   88.16    3.59   0
   9  -3   4   90.58    3.38   0
  -9   3  -4   95.76    3.50   0
  10  -3   4    1.52    2.24   0
 -10  -3  -4    5.09    3.12   0
 -10   3  -4    5.78    3.23   0
  11  -3   4    0.72    2.37   0
 -11  -3  -4    0.95    3.38   0
 -11   3  -4    1.58    3.41   0
 -13  -4   4  542.12    5.45   0
 -13  -4   4  472.89    6.49   0
 -13   4   4  525.99    9.37   0
 -13  -4   4  530.13    7.36   0
 -13   4   4  483.11    4.37   0
 -12  -4   4  774.58    5.49   0
  12  -4  -4  753.36    8.58   0
 -12   4   4  807.94    5.66   0
 -12  -4   4  783.94    7.06   0
 -12   4   4  761.80    8.30   0
 -12  -4   4  819.84    7.40   0
  11  -4  -4  679.73    7.10   0
 -11  -4   4  744.92    6.66   0
 -11  -4   4  716.64    5.70   0
 -11   4   4  692.85    7.23   0
 -11  -4   4  687.80    6.34   0
 -11   4   4  688.47    4.73   0
 -10  -4   4  759.39    5.36   0
 -10  -4   4  720.26    5.80   0
 -10  -4   4  812.73    6.59   0
 -10   4   4  768.86    4.94   0
  10  -4  -4  752.95    7.00   0
 -10   4   4  745.98    7.11   0
  -9  -4   4 1305.89    7.85   0
   9  -4  -4 1240.78    8.01   0
  -9  -4   4 1258.51    7.63   0
  -9   4   4 1223.35    8.55   0
  -9   4   4 1293.14    6.59   0
  -9  -4   4 1302.92    7.18   0
  -8   4   4  978.48    7.37   0
  -8   4   4  995.49    5.64   0
  -8  -4   4 1080.68    7.01   0
   8  -4  -4 1044.79    7.47   0
  -7   4   4   58.87    2.25   0
   7  -4  -4   64.76    3.13   0
  -7   4   4   56.07    2.39   0
  -7  -4   4   62.45    2.94   0
  -6   4   4    1.79    2.52   0
  -6   4   4    3.35    1.86   0
   6  -4  -4    3.37    2.50   0
  -6  -4   4    1.55    1.81   0
  -5   4   4  395.70    4.97   0
  -5   4   4  416.49    4.68   0
   5  -4  -4  404.48    4.62   0
  -5  -4   4  387.98    4.63   0
  -5  -4   4  410.21    4.43   0
   4  -4  -4    4.32    1.86   0
  -4  -4   4    3.58    1.92   0
  -4   4   4    4.08    2.66   0
  -4  -4   4    4.67    2.53   0
  -4   4   4    5.56    1.85   0
  -3   4   4 1241.87    8.34   0
   3  -4  -4 1209.61    7.52   0
  -3  -4   4 1259.73    8.29   0
  -3  -4   4 1276.40    7.67   0
  -3   4   4 1228.32    7.90   0
  -2  -4   4 1376.63    7.95   0
  -2   4   4 1376.38    9.82   0
   2  -4  -4 1405.10    8.29   0
   2   4  -4 1345.51    8.34   0
  -2  -4   4 1485.72    8.91   0
  -2   4   4 1315.77    7.99   0
   1  -4  -4 3437.22   12.60   0
   1   4  -4 3543.60   13.26   0
  -1  -4   4 3691.98   13.35   0
  -1   4   4 3374.30   12.63   0
  -1  -4   4 3450.68   12.80   0
   0  -4  -4 3741.74   13.37   0
   0   4  -4 4024.03   13.58   0
   0  -4   4 3833.09   13.01   0
   0   4   4 3626.16   13.27   0
   0   4   4 3731.04   23.68   0
   0  -4   4 3910.01   14.31   0
  -1  -4  -4  415.39    5.15   0
   1   4   4  433.76   10.10   0
  -1   4  -4  453.51    4.97   0
   1  -4   4  449.41    4.85   0
   1   4   4  387.52    4.64   0
   1  -4   4  423.32    5.36   0
  -2  -4  -4 1603.07    9.31   0
  -2  -4  -4 1681.88   17.59   0
   2  -4   4 1620.02   10.37   0
   2  -4   4 1563.52    9.95   0
   2   4   4 1559.05    9.04   0
  -2   4  -4 1775.26    8.46   0
   2  -4   4 1622.37    7.88   0
   2   4   4 1673.52   17.47   0
  -3  -4  -4 1092.74    7.92   0
   3   4   4 1112.44   11.54   0
   3   4   4 1060.91    7.74   0
   3  -4   4 1101.60    9.31   0
   3  -4   4 1092.12    9.34   0
   3  -4   4 1075.19    6.25   0
  -3   4  -4 1189.17    6.81   0
  -3  -4  -4 1175.99   11.77   0
  -4  -4  -4  420.19    5.35   0
   4   4   4  431.18    6.55   0
  -4   4  -4  435.13    4.21   0
   4  -4   4  415.87    6.65   0
   4  -4   4  410.78    4.06   0
   4   4   4  407.60    5.23   0
  -4  -4  -4  451.55    6.56   0
   4  -4   4  441.74    7.04   0
  -5  -4  -4   39.97    3.00   0
   5  -4   4   40.19    4.42   0
   5  -4   4   40.51    4.48   0
   5   4   4   37.99    2.95   0
   5  -4   4   39.25    2.84   0
  -5   4  -4   40.40    2.89   0
  -5  -4  -4   42.84    3.50   0
   5   4   4   38.33    2.97   0
  -6  -4  -4   77.83    3.44   0
   6   4   4   72.45    3.34   0
   6  -4   4   77.07    2.42   0
  -6   4  -4   83.01    2.46   0
  -6  -4  -4   82.14    3.42   0
   7  -4   4   20.78    2.04   0
  -7  -4  -4   22.11    3.61   0
  -7   4  -4   23.53    2.88   0
  -7  -4  -4   23.14    2.97   0
  -8  -4  -4  526.54    7.66   0
   8  -4   4  587.44    4.97   0
  -8  -4  -4  557.03    8.47   0
  -8  -4  -4  570.49    6.02   0
  -8   4  -4  552.92    4.44   0
  -9  -4  -4   97.22    7.33   0
   9  -4   4   96.34    2.70   0
  -9   4  -4   98.96    3.46   0
  -9  -4  -4   99.31    3.71   0
  -9  -4  -4   98.92    7.57   0
  10  -4   4   91.63    2.74   0
 -10   4  -4   91.94    2.78   0
 -10  -4  -4   99.59    3.92   0
  11  -4   4   38.18    3.53   0
 -11   4  -4   33.53    2.62   0
 -11  -4  -4   43.22    3.72   0
 -13  -5   4    4.34    3.34   0
 -13  -5   4    2.84    3.42   0
 -13   5   4    4.07    4.72   0
 -13   5   4    5.09    2.41   0
 -13  -5   4    5.43    3.38   0
 -12  -5   4   63.94    2.88   0
 -12  -5   4   66.82    3.54   0
 -12   5   4   61.42    4.35   0
 -12   5   4   69.66    3.49   0
 -12  -5   4   64.96    3.56   0
  12  -5  -4   62.90    4.26   0
 -11   5   4    0.88    2.12   0
 -11  -5   4    0.43    2.12   0
 -11  -5   4    0.19    3.05   0
 -11   5   4    1.39    2.95   0
 -11  -5   4    1.32    2.93   0
  11  -5  -4    0.63    2.97   0
 -10  -5   4   41.75    2.38   0
 -10   5   4   43.89    2.32   0
 -10  -5   4   44.21    2.51   0
 -10  -5   4   50.19    3.20   0
 -10   5   4   42.19    3.30   0
  10  -5  -4   46.69    3.30   0
   9  -5  -4   18.40    2.22   0
  -9  -5   4   16.96    2.08   0
  -9  -5   4   16.67    2.02   0
  -9   5   4   17.33    2.94   0
  -9  -5   4   17.16    2.12   0
  -9   5   4   17.34    2.91   0
  -8  -5   4   11.38    2.68   0
  -8  -5   4    8.01    2.63   0
  -8   5   4    7.70    2.68   0
  -8   5   4    8.90    2.73   0
   8  -5  -4    9.54    1.99   0
  -7   5   4    3.53    2.62   0
  -7  -5   4    2.50    1.76   0
  -7  -5   4    1.00    2.53   0
   7  -5  -4    1.69    2.65   0
  -7   5   4    2.09    1.76   0
  -6  -5   4  671.52    5.56   0
  -6   5   4  667.82    5.88   0
   6  -5  -4  671.86    5.58   0
  -6  -5   4  678.52    5.22   0
  -6   5   4  671.98    5.06   0
  -5   5   4   11.20    1.90   0
   5  -5  -4   14.06    2.55   0
  -5   5   4   10.54    1.90   0
  -5  -5   4   12.22    1.87   0
  -5  -5   4   12.09    2.03   0
  -4   5   4  148.90    3.17   0
   4  -5  -4  141.88    3.45   0
  -4  -5   4  144.73    3.33   0
  -4  -5   4  153.09    3.81   0
  -4   5   4  143.93    3.51   0
   3   5  -4  199.79    3.62   0
   3  -5  -4  210.49    3.84   0
  -3   5   4  196.45    3.37   0
  -3  -5   4  202.43    3.25   0
  -3   5   4  211.25    4.18   0
  -3  -5   4  210.40    3.62   0
   2  -5  -4  950.20    6.61   0
  -2  -5   4 1003.65    6.99   0
   2   5  -4  926.12    6.82   0
  -2   5   4  941.45    7.95   0
  -2  -5   4  946.27    6.34   0
  -2   5   4  949.67    6.66   0
  -1   5   4 3400.10   17.77   0
   1  -5  -4 3262.55   11.63   0
  -1  -5   4 3344.41   12.03   0
  -1  -5   4 3647.93   12.73   0
   1   5  -4 3483.83   12.70   0
  -1   5   4 3196.52   11.66   0
   0  -5  -4   65.21    3.00   0
   0   5   4   67.27    4.59   0
   0  -5   4   74.58    3.21   0
   0  -5   4   70.61    2.41   0
   0   5  -4   74.51    3.09   0
   0   5   4   61.19    2.40   0
   1  -5   4    7.07    2.01   0
  -1   5  -4   11.06    2.58   0
   1   5   4    8.09    2.49   0
   1  -5   4    6.70    1.78   0
   1  -5   4    7.40    2.68   0
  -1  -5  -4    8.89    2.60   0
   2  -5   4   91.29    3.31   0
   2  -5   4   94.14    3.34   0
   2   5   4   91.78    3.22   0
   2  -5   4   96.11    3.03   0
  -2   5  -4  100.28    2.55   0
  -2  -5  -4   97.20    3.28   0
   3  -5   4  165.99    4.09   0
   3   5   4  157.97    3.60   0
  -3  -5  -4  174.12    7.68   0
  -3   5  -4  184.33    3.53   0
   3  -5   4  163.77    4.01   0
   3  -5   4  161.78    2.86   0
  -3  -5  -4  165.03    3.71   0
   4  -5   4   98.98    3.59   0
  -4  -5  -4  107.41    4.72   0
   4  -5   4   98.58    3.56   0
   4   5   4   97.88    3.26   0
   4  -5   4  103.59    3.06   0
  -4   5  -4  106.08    2.55   0
  -4  -5  -4  100.25    3.37   0
  -5  -5  -4  184.19    5.02   0
   5  -5   4  173.33    3.35   0
   5   5   4  154.71    3.30   0
   5  -5   4  172.61    5.17   0
  -5  -5  -4  169.34    3.92   0
  -5   5  -4  176.23    2.86   0
   5  -5   4  163.16    4.72   0
  -6  -5  -4   29.56    2.95   0
   6  -5   4   28.53    5.55   0
  -6  -5  -4   33.30    3.05   0
  -6   5  -4   30.91    2.93   0
   6  -5   4   31.14    2.14   0
   6  -5   4   30.98    5.93   0
   6   5   4   31.42    2.97   0
  -7  -5  -4   19.94    2.95   0
   7  -5   4   21.35    2.04   0
  -7   5  -4   19.21    2.89   0
  -7  -5  -4   20.77    2.99   0
  -8  -5  -4  165.98    4.52   0
  -8  -5  -4  172.14    4.28   0
  -8   5  -4  170.21    3.00   0
   8  -5   4  169.72    3.62   0
   9  -5   4  474.98    4.22   0
  -9  -5  -4  467.18    7.82   0
  -9   5  -4  519.65    4.91   0
  -9  -5  -4  501.06    6.01   0
  -9  -5  -4  487.59    8.15   0
  10  -5   4  109.95    2.90   0
 -10   5  -4  113.99    3.00   0
 -10  -5  -4  123.05    4.05   0
 -13  -6   4  250.56    5.04   0
 -13   6   4  233.92    6.59   0
  13  -6  -4  224.32    6.44   0
 -13  -6   4  247.71    4.62   0
 -13  -6   4  239.22    4.76   0
 -13   6   4  218.24    3.53   0
  12  -6  -4  278.04    5.90   0
 -12  -6   4  285.42    4.36   0
 -12  -6   4  277.91    4.26   0
 -12   6   4  288.65    5.53   0
 -12   6   4  284.42    3.62   0
 -12  -6   4  308.12    4.70   0
 -11  -6   4   72.69    3.47   0
 -11  -6   4   70.50    3.51   0
 -11  -6   4   74.21    3.54   0
  11  -6  -4   66.18    3.60   0
 -11   6   4   66.82    3.65   0
 -11   6   4   65.13    3.20   0
 -10   6   4  410.70    4.38   0
 -10  -6   4  433.07    4.96   0
  10  -6  -4  417.07    5.48   0
 -10  -6   4  411.95    4.89   0
 -10   6   4  402.85    5.45   0
 -10  -6   4  420.85    4.47   0
  -9   6   4  643.16    5.00   0
  -9  -6   4  659.14    5.66   0
  -9  -6   4  610.24    5.00   0
  -9   6   4  634.56    6.21   0
   9  -6  -4  651.72    6.20   0
  -8  -6   4  399.54    4.17   0
  -8  -6   4  423.18    4.70   0
  -8  -6   4  402.23    4.35   0
   8  -6  -4  418.28    4.63   0
  -8   6   4  414.55    5.03   0
  -8   6   4  409.14    3.87   0
   7  -6  -4  104.80    2.80   0
  -7  -6   4  108.39    3.14   0
  -7  -6   4  108.13    3.20   0
  -7   6   4  102.07    2.72   0
  -7  -6   4  110.66    3.45   0
  -7   6   4  106.17    2.52   0
  -6  -6   4   30.69    1.96   0
  -6  -6   4   29.01    2.59   0
  -6  -6   4   30.42    2.86   0
  -6   6   4   27.89    2.02   0
  -6   6   4   30.76    2.85   0
   6  -6  -4   30.19    2.74   0
  -5  -6   4  108.31    3.10   0
   5  -6  -4  104.27    3.17   0
  -5   6   4  107.88    3.21   0
  -5   6   4   97.71    2.59   0
  -5  -6   4  106.51    2.55   0
  -5  -6   4  111.69    3.41   0
  -4  -6   4  211.24    3.60   0
  -4  -6   4  200.01    3.50   0
   4  -6  -4  197.89    3.61   0
  -4   6   4  210.09    3.90   0
  -4  -6   4  204.61    3.55   0
  -4   6   4  192.58    3.66   0
   3   6  -4  324.42    4.71   0
   3  -6  -4  314.59    3.80   0
  -3  -6   4  322.31    4.08   0
  -3  -6   4  335.70    4.70   0
  -3   6   4  313.39    4.30   0
  -3   6   4  315.14    4.19   0
  -3  -6   4  329.04    4.11   0
  -2  -6   4 1236.73    6.98   0
   2  -6  -4 1237.54    7.19   0
   2   6  -4 1195.08    7.49   0
  -2  -6   4 1213.81    7.16   0
  -2   6   4 1209.14    8.70   0
  -2   6   4 1207.91    7.13   0
  -2  -6   4 1305.91    7.69   0
   1   6  -4 1744.91    8.87   0
  -1  -6   4 1829.76    8.88   0
  -1  -6   4 1628.70    8.14   0
   1  -6  -4 1652.94    8.22   0
  -1   6   4 1671.64   12.23   0
  -1   6   4 1633.87    8.19   0
  -1  -6   4 1678.36    8.26   0
   0  -6   4 2323.51   10.20   0
   0   6  -4 2367.32    9.87   0
   0  -6   4 2341.36    9.61   0
   0   6   4 2126.84    9.06   0
   0   6   4 2182.31   18.45   0
   0  -6   4 2287.09    9.97   0
   0  -6  -4 2250.29    9.36   0
   1  -6   4 2475.27   10.52   0
   1  -6   4 2483.58   10.78   0
   1   6   4 2423.23    9.93   0
   1  -6   4 2469.10    9.43   0
  -1   6  -4 2577.82    9.58   0
  -1  -6  -4 2552.38   10.23   0
   2   6   4 2029.34    9.22   0
   2  -6   4 2079.72   10.27   0
   2  -6   4 2104.16    8.61   0
  -2   6  -4 2152.27    8.56   0
  -2  -6  -4 2173.27    9.56   0
   2  -6   4 2110.09   10.41   0
   3  -6   4 1151.62    8.24   0
   3  -6   4 1132.37    8.13   0
   3  -6   4 1175.34    6.50   0
  -3   6  -4 1234.56    6.65   0
  -3  -6  -4 1170.66    7.30   0
   3   6   4 1083.24    6.99   0
   4   6   4  119.75    3.39   0
   4  -6   4  120.61    3.63   0
  -4  -6  -4  134.74    8.77   0
  -4   6  -4  133.98    3.24   0
   4  -6   4  119.98    3.61   0
   4  -6   4  127.42    3.19   0
  -4  -6  -4  124.26    3.51   0
   5  -6   4    8.99    1.80   0
   5  -6   4    6.92    2.67   0
   5   6   4    6.33    1.88   0
  -5  -6  -4    6.42    3.48   0
   5  -6   4    5.96    2.70   0
  -5   6  -4    4.88    1.92   0
  -5  -6  -4    6.72    2.63   0
  -6  -6  -4   55.42    3.15   0
   6   6   4   49.45    2.49   0
  -6  -6  -4   61.43    4.04   0
   6  -6   4   59.14    2.98   0
   6  -6   4   56.69    4.18   0
   6  -6   4   52.87    4.10   0
  -6   6  -4   59.75    3.00   0
  -7  -6  -4   10.66    2.90   0
   7   6   4    9.03    2.99   0
   7  -6   4    9.12    2.08   0
  -7  -6  -4    8.32    3.52   0
  -7   6  -4   10.95    2.83   0
  -8  -6  -4    2.62    2.93   0
  -8  -6  -4    2.04    2.94   0
  -8   6  -4   -1.26    3.01   0
   8  -6   4    0.57    2.91   0
  -9  -6  -4   10.00    3.91   0
  -9  -6  -4    8.07    3.09   0
  -9   6  -4   10.36    3.13   0
   9  -6   4    8.99    2.20   0
  -9  -6  -4    9.94    3.31   0
  10  -6   4    8.60    2.34   0
 -10  -6  -4    8.42    3.47   0
 -10  -6  -4    8.39    4.23   0
 -10   6  -4   10.11    2.41   0
 -10  -6  -4    9.12    4.34   0
 -13  -7   4   22.26    3.51   0
 -13  -7   4   27.49    3.65   0
 -13   7   4   23.37    4.52   0
 -13   7   4   23.11    2.56   0
 -13  -7   4   22.14    2.66   0
  13  -7  -4   23.29    4.40   0
 -12   7   4   66.07    4.57   0
 -12   7   4   60.53    2.58   0
 -12  -7   4   70.62    3.57   0
 -12  -7   4   71.81    3.71   0
  12  -7  -4   63.86    3.86   0
 -12  -7   4   67.62    3.68   0
 -11  -7   4   -0.17    3.00   0
  11  -7  -4    0.84    3.05   0
 -11   7   4    1.22    3.10   0
 -11   7   4   -0.16    2.17   0
 -11  -7   4   -0.17    2.25   0
 -11  -7   4    0.27    3.09   0
  10  -7  -4   12.00    3.03   0
 -10  -7   4   10.92    3.13   0
 -10  -7   4   15.65    2.28   0
 -10  -7   4   13.62    2.90   0
 -10   7   4   12.24    3.02   0
 -10  -7   4   12.67    3.02   0
 -10   7   4   15.64    3.05   0
  -9  -7   4   82.25    2.82   0
  -9  -7   4   84.37    2.64   0
  -9  -7   4   88.65    3.28   0
  -9   7   4   81.05    2.67   0
   9  -7  -4   91.00    3.52   0
  -9   7   4   87.72    3.22   0
  -8  -7   4  261.03    4.27   0
  -8   7   4  255.16    3.29   0
  -8  -7   4  254.91    3.48   0
  -8  -7   4  258.51    3.47   0
   8  -7  -4  268.52    3.81   0
  -8   7   4  266.45    4.31   0
  -7  -7   4   57.60    3.07   0
  -7  -7   4   57.25    2.23   0
   7  -7  -4   62.57    3.00   0
  -7  -7   4   54.04    2.23   0
  -7   7   4   54.87    2.94   0
  -7   7   4   61.63    2.36   0
  -6  -7   4   11.54    1.90   0
   6  -7  -4    8.36    2.57   0
  -6   7   4   11.48    2.55   0
  -6   7   4   14.96    1.95   0
  -6  -7   4   14.11    1.94   0
  -6  -7   4   12.90    2.78   0
  -5  -7   4    1.95    1.91   0
   5  -7  -4    2.28    1.67   0
  -5  -7   4    3.29    1.88   0
  -5  -7   4    2.52    1.85   0
  -5   7   4    2.73    2.44   0
  -5   7   4    2.29    2.54   0
   4  -7  -4  130.58    2.75   0
  -4  -7   4  136.83    3.19   0
  -4  -7   4  140.62    3.29   0
  -4  -7   4  140.50    3.56   0
  -4   7   4  124.80    2.74   0
  -4   7   4  133.77    3.41   0
   3   7  -4  538.93    5.50   0
   3  -7  -4  525.48    4.61   0
  -3  -7   4  561.03    4.91   0
  -3   7   4  511.34    4.53   0
  -3  -7   4  522.87    4.41   0
  -3  -7   4  577.61    5.55   0
  -3   7   4  533.50    5.61   0
  -2   7   4  341.66    3.82   0
   2  -7  -4  373.89    4.26   0
  -2  -7   4  367.93    4.22   0
   2   7  -4  359.28    4.66   0
  -2  -7   4  385.91    4.32   0
  -2   7   4  356.86    5.14   0
   1   7  -4 2022.15    8.97   0
  -1  -7   4 1956.84    8.46   0
  -1   7   4 1999.29    8.62   0
  -1  -7   4 2099.17    9.29   0
  -1   7   4 1957.39   12.62   0
   1  -7  -4 2052.85    8.66   0
   0  -7   4   20.43    1.96   0
   0   7  -4   20.36    2.72   0
   0   7   4   20.03    3.52   0
   0   7   4   19.14    2.46   0
   0  -7   4   21.67    2.64   0
   0  -7  -4   21.90    2.57   0
  -1   7  -4  520.53    4.94   0
   1  -7   4  479.30    5.07   0
   1  -7   4  473.54    4.31   0
  -1  -7  -4  477.60    4.45   0
   1   7   4  463.44    4.68   0
   2  -7   4  130.86    2.97   0
   2   7   4  131.11    2.72   0
  -2   7  -4  143.15    2.75   0
   2  -7   4  142.76    2.85   0
  -2  -7  -4  142.60    3.37   0
   2  -7   4  131.96    2.93   0
   3  -7   4   34.70    2.90   0
   3  -7   4   36.53    1.99   0
   3   7   4   33.74    2.05   0
  -3   7  -4   38.03    2.06   0
  -3  -7  -4   37.56    2.74   0
   3  -7   4   37.73    2.91   0
   4  -7   4   68.58    2.26   0
  -4   7  -4   74.30    2.93   0
   4  -7   4   72.63    3.21   0
   4   7   4   66.39    2.34   0
   4  -7   4   66.94    3.13   0
  -4  -7  -4   72.11    2.44   0
   5  -7   4  409.55    3.78   0
  -5   7  -4  443.53    4.43   0
   5   7   4  370.15    4.24   0
   5  -7   4  410.55    5.75   0
  -5  -7  -4  409.11    4.83   0
   5  -7   4  392.64    5.57   0
   6  -7   4   24.93    3.13   0
  -6   7  -4   25.83    2.14   0
   6   7   4   23.20    2.19   0
  -6  -7  -4   28.55    4.49   0
   6  -7   4   27.68    2.06   0
   6  -7   4   25.39    3.69   0
  -6  -7  -4   25.08    2.99   0
  -7  -7  -4    3.77    2.89   0
   7  -7   4    3.68    4.21   0
   7  -7   4    3.84    4.74   0
  -7  -7  -4    4.30    3.56   0
  -7   7  -4    3.46    2.09   0
   7   7   4    4.39    2.96   0
   7  -7   4    5.61    2.85   0
  -8  -7  -4  227.53    4.62   0
  -8  -7  -4  234.03    5.26   0
   8  -7   4  222.13    3.25   0
  -8   7  -4  240.56    4.01   0
  -9  -7  -4  307.20    5.50   0
  -9   7  -4  314.16    4.28   0
  -9  -7  -4  328.53    5.88   0
   9  -7   4  308.01    3.55   0
 -10  -7  -4  250.01    5.52   0
 -10  -7  -4  243.20    6.21   0
  10  -7   4  227.95    3.55   0
 -10  -7  -4  226.98    6.01   0
 -10   7  -4  238.68    3.63   0
 -12  -8   4    3.21    2.39   0
 -12  -8   4    2.86    3.22   0
 -12   8   4    3.57    3.49   0
 -12  -8   4    4.09    2.43   0
 -12   8   4   -1.85    3.28   0
 -12  -8   4    2.41    2.36   0
  12  -8  -4    3.20    3.31   0
  11  -8  -4    6.36    3.12   0
 -11  -8   4    4.17    2.25   0
 -11  -8   4    7.06    2.35   0
 -11  -8   4    5.76    2.32   0
 -11   8   4    7.17    3.20   0
 -11   8   4    7.34    3.22   0
 -11  -8   4    5.68    2.17   0
 -10  -8   4  106.46    3.55   0
 -10  -8   4  104.00    3.46   0
 -10  -8   4  102.38    3.66   0
 -10   8   4   94.24    3.00   0
 -10   8   4   98.61    2.66   0
  10  -8  -4  101.68    3.72   0
 -10  -8   4  104.81    3.68   0
  -9  -8   4    5.86    2.78   0
  -9   8   4    3.61    2.82   0
   9  -8  -4    4.02    2.90   0
  -9  -8   4    4.40    1.99   0
  -9   8   4    4.27    2.94   0
  -9  -8   4    4.17    2.83   0
  -8  -8   4    2.86    2.03   0
  -8  -8   4    0.64    2.74   0
   8  -8  -4    1.98    2.80   0
  -8   8   4    0.80    2.85   0
  -8   8   4    2.32    2.75   0
  -8  -8   4   -0.81    1.95   0
  -7  -8   4    8.59    2.06   0
  -7   8   4    9.72    2.78   0
  -7  -8   4   11.54    2.53   0
  -7   8   4    7.85    2.70   0
  -7  -8   4   10.30    2.60   0
   7  -8  -4    9.76    2.66   0
  -6  -8   4   26.34    1.94   0
  -6   8   4   27.78    2.11   0
  -6  -8   4   25.87    2.17   0
  -6  -8   4   28.50    2.68   0
   6  -8  -4   27.20    2.04   0
  -6   8   4   25.05    2.71   0
   5  -8  -4  140.08    2.74   0
  -5  -8   4  147.56    3.29   0
   5  -8  -4  148.87    2.99   0
  -5   8   4  143.74    3.40   0
  -5   8   4  140.20    2.92   0
  -5  -8   4  147.16    3.30   0
  -5  -8   4  152.49    3.13   0
   4  -8  -4  375.06    4.34   0
  -4  -8   4  348.95    3.66   0
   4  -8  -4  380.70    4.20   0
  -4  -8   4  385.28    4.35   0
  -4  -8   4  367.90    3.72   0
  -4   8   4  360.58    4.11   0
  -4   8   4  349.45    3.89   0
   3  -8  -4   52.08    2.84   0
  -3   8   4   49.69    2.18   0
  -3  -8   4   54.09    2.15   0
  -3   8   4   51.72    2.93   0
   3   8  -4   53.50    2.31   0
  -3  -8   4   55.11    2.95   0
  -2  -8   4  442.11    4.10   0
  -2   8   4  436.73    5.52   0
  -2   8   4  444.84    4.52   0
  -2  -8   4  471.54    4.56   0
   2   8  -4  439.11    4.50   0
   2  -8  -4  458.26    4.53   0
  -1   8   4  440.22    6.21   0
  -1  -8   4  440.39    4.18   0
   1   8  -4  463.14    4.88   0
   1  -8  -4  444.04    4.09   0
  -1   8   4  421.27    4.02   0
  -1  -8   4  456.60    4.38   0
   0   8   4    3.40    2.49   0
   0  -8   4    3.02    2.45   0
   0   8   4    2.99    3.18   0
   0  -8  -4    4.29    1.80   0
   0   8  -4    2.73    1.93   0
   0  -8   4    4.16    1.83   0
   1  -8   4  763.04    5.84   0
   1   8   4  708.08    5.11   0
   1  -8   4  762.11    5.22   0
  -1   8  -4  811.46    5.79   0
  -1  -8  -4  799.52    5.76   0
   2  -8   4 1640.55    7.28   0
   2  -8   4 1619.69    8.17   0
  -2  -8  -4 1654.20    7.61   0
  -2   8  -4 1701.57    7.40   0
   2   8   4 1528.23    7.31   0
   3   8   4   94.25    3.06   0
   3  -8   4   97.11    2.47   0
  -3   8  -4   96.45    2.46   0
   3  -8   4   99.28    3.32   0
  -3  -8  -4   95.63    2.58   0
   4   8   4   29.87    2.81   0
  -4   8  -4   31.29    2.09   0
   4  -8   4   27.70    2.14   0
   4  -8   4   29.92    2.74   0
  -4  -8  -4   28.81    2.83   0
   4  -8   4   31.33    2.85   0
  -5   8  -4  411.78    3.79   0
   5  -8   4  417.01    4.27   0
   5  -8   4  384.15    5.36   0
   5  -8   4  408.76    5.51   0
  -5  -8  -4  423.51    4.82   0
   5   8   4  387.97    4.63   0
   6  -8   4  157.38    2.76   0
   6   8   4  146.82    3.69   0
   6  -8   4  149.98    4.24   0
  -6   8  -4  168.65    3.42   0
   6  -8   4  149.13    4.20   0
  -6  -8  -4  156.12    3.69   0
   7  -8   4   82.22    4.63   0
  -7  -8  -4   87.07    7.19   0
   7   8   4   82.17    3.57   0
  -7  -8  -4   89.71    3.55   0
  -7  -8  -4   97.20    7.53   0
  -7   8  -4   96.14    3.44   0
   7  -8   4   93.55    3.21   0
   7  -8   4   88.06    4.64   0
  -8  -8  -4   43.40    3.34   0
   8  -8   4   47.09    3.24   0
  -8  -8  -4   45.95    4.60   0
  -8   8  -4   39.33    2.52   0
  -8  -8  -4   43.97    5.24   0
  -9  -8  -4    8.42    3.31   0
   9  -8   4   10.64    3.11   0
  -9  -8  -4    8.88    4.06   0
  -9   8  -4    7.69    2.31   0
 -10  -8  -4   12.66    3.52   0
 -10  -8  -4   13.47    3.78   0
  10  -8   4   16.05    3.28   0
 -10   8  -4   13.35    3.43   0
 -10  -8  -4   12.38    4.35   0
 -12  -9   4   22.55    3.55   0
 -12  -9   4   18.25    2.58   0
  12  -9  -4   20.68    3.60   0
 -12  -9   4   20.09    2.47   0
 -12   9   4   20.82    3.68   0
 -12  -9   4   22.46    3.63   0
 -12   9   4   17.88    2.47   0
 -11  -9   4   15.16    3.42   0
 -11  -9   4   16.23    3.35   0
 -11   9   4   14.23    2.32   0
 -11  -9   4   15.22    3.15   0
 -11  -9   4   13.32    3.34   0
 -11   9   4   15.15    3.37   0
  11  -9  -4   13.32    3.29   0
 -10  -9   4   19.66    3.30   0
 -10  -9   4   19.55    3.20   0
 -10   9   4   17.57    2.33   0
 -10  -9   4   20.33    3.15   0
 -10  -9   4   17.99    3.05   0
 -10   9   4   15.66    2.24   0
  10  -9  -4   17.25    3.28   0
   9  -9  -4  146.25    3.13   0
  -9   9   4  141.10    3.10   0
  -9  -9   4  150.63    3.90   0
  -9  -9   4  155.51    3.66   0
  -9   9   4  154.08    2.91   0
  -9  -9   4  145.33    2.87   0
  -8  -9   4   34.62    2.30   0
  -8  -9   4   35.79    2.35   0
   8  -9  -4   38.36    3.13   0
  -8   9   4   35.26    3.01   0
  -8   9   4   33.10    2.28   0
  -8  -9   4   38.46    3.00   0
   7  -9  -4  348.70    4.51   0
  -7  -9   4  340.92    3.64   0
  -7   9   4  326.03    3.93   0
  -7  -9   4  363.27    4.80   0
  -7  -9   4  351.57    4.30   0
  -7   9   4  350.99    4.34   0
   6  -9  -4    7.62    2.73   0
   6  -9  -4    5.02    2.00   0
  -6  -9   4    2.54    1.84   0
  -6   9   4    4.44    2.81   0
  -6  -9   4    4.57    2.69   0
  -6  -9   4    4.84    2.80   0
  -6   9   4    2.20    2.66   0
  -5  -9   4 1112.59    5.92   0
   5  -9  -4 1151.95    6.66   0
   5  -9  -4 1204.40    6.53   0
  -5  -9   4 1107.14    5.95   0
  -5   9   4 1075.73    6.21   0
  -5   9   4 1089.25    6.33   0
  -5  -9   4 1183.81    7.11   0
   4  -9  -4 1505.59    7.38   0
  -4  -9   4 1447.64    6.68   0
   4   9  -4 1416.54    7.93   0
   4  -9  -4 1648.55    8.30   0
  -4   9   4 1395.20    7.41   0
  -4   9   4 1467.69    7.37   0
  -4  -9   4 1672.71    8.49   0
   3  -9  -4   37.31    2.96   0
  -3   9   4   32.67    2.22   0
  -3  -9   4   36.18    2.67   0
  -3  -9   4   40.82    2.95   0
   3   9  -4   34.93    2.18   0
  -3   9   4   33.51    2.02   0
   3  -9  -4   35.17    2.00   0
  -2  -9   4  783.65    5.17   0
  -2   9   4  789.56    7.01   0
   2   9  -4  829.64    6.14   0
  -2   9   4  794.41    5.50   0
  -2  -9   4  862.84    6.12   0
   2  -9  -4  803.62    5.25   0
  -1   9   4  780.14    7.72   0
  -1  -9   4  785.36    5.26   0
  -1   9   4  767.54    5.39   0
  -1  -9   4  816.29    5.54   0
   1  -9  -4  828.76    5.54   0
   1   9  -4  788.15    5.56   0
   0  -9  -4  181.60    2.95   0
   0   9  -4  194.88    3.70   0
   0  -9   4  179.55    3.01   0
   0   9   4  172.88    2.85   0
   0  -9   4  194.27    3.56   0
   0   9   4  186.53    5.49   0
   1  -9   4  179.66    3.58   0
   1   9   4  163.83    2.82   0
   1  -9   4  176.33    2.95   0
  -1   9  -4  189.83    3.64   0
  -1  -9  -4  186.06    3.50   0
   2   9   4   71.42    2.35   0
  -2   9  -4   89.77    3.13   0
   2  -9   4   83.37    2.98   0
   2  -9   4   80.06    3.02   0
  -2  -9  -4   81.28    2.41   0
   3  -9   4  299.93    4.30   0
   3   9   4  267.26    3.45   0
  -3  -9  -4  296.16    3.57   0
  -3   9  -4  309.61    4.04   0
   3  -9   4  296.05    3.40   0
   4  -9   4 1123.01    7.62   0
  -4   9  -4 1197.46    6.29   0
   4   9   4 1106.12    6.56   0
   4  -9   4 1130.78    5.78   0
  -4  -9  -4 1182.71    6.83   0
   4  -9   4 1131.23    7.71   0
   5  -9   4  205.88    4.23   0
   5   9   4  189.46    3.82   0
   5  -9   4  200.38    4.18   0
  -5   9  -4  218.67    3.68   0
  -5  -9  -4  213.50    3.87   0
   5  -9   4  197.07    2.97   0
   6  -9   4   72.94    3.64   0
   6   9   4   76.56    3.43   0
  -6  -9  -4   78.44    3.42   0
  -6   9  -4   81.36    2.53   0
   6  -9   4   76.04    3.65   0
   6  -9   4   76.84    2.42   0
   7  -9   4  421.57    6.46   0
   7  -9   4  469.89    4.56   0
  -7  -9  -4  457.11    5.22   0
   7   9   4  419.55    5.12   0
  -7   9  -4  447.05    4.00   0
   7  -9   4  412.08    6.37   0
  -8  -9  -4  253.12    4.04   0
   8  -9   4  292.44    4.12   0
   8  -9   4  259.58    7.89   0
  -8   9  -4  288.90    4.25   0
   8  -9   4  266.05    8.11   0
   9  -9   4  130.78    3.77   0
  -9  -9  -4  110.97    3.37   0
  -9   9  -4  134.03    3.90   0
 -11 -10   4    5.94    2.38   0
 -11 -10   4    9.19    3.37   0
 -11 -10   4    9.38    3.38   0
 -11  10   4    8.44    2.40   0
 -11  10   4    7.95    3.39   0
  11 -10  -4    7.00    3.33   0
 -11 -10   4    7.49    2.28   0
 -10 -10   4    0.66    2.26   0
 -10 -10   4   -0.19    2.28   0
 -10  10   4   -1.03    3.19   0
  10 -10  -4    0.37    2.24   0
 -10 -10   4   -1.08    2.16   0
 -10 -10   4    1.18    3.08   0
 -10  10   4    4.31    3.24   0
   9 -10  -4   49.37    2.65   0
  -9  10   4   52.38    2.49   0
  -9 -10   4   53.71    3.23   0
  -9  10   4   48.93    3.40   0
  -9 -10   4   53.37    3.53   0
  -9 -10   4   57.33    3.25   0
  -8 -10   4    1.44    2.87   0
   8 -10  -4   -0.20    2.97   0
  -8  10   4    4.85    2.92   0
  -8 -10   4    0.77    2.91   0
  -8 -10   4    1.52    1.99   0
  -8  10   4    3.62    2.06   0
  -7 -10   4   21.82    2.12   0
   7 -10  -4   27.03    2.25   0
  -7 -10   4   23.34    3.08   0
  -7  10   4   20.54    2.15   0
   7 -10  -4   21.22    2.21   0
  -7 -10   4   22.32    2.81   0
  -7  10   4   22.95    2.12   0
   6 -10  -4  140.44    2.84   0
  -6  10   4  126.21    3.41   0
   6 -10  -4  127.61    2.79   0
  -6 -10   4  147.17    3.73   0
  -6 -10   4  137.95    2.72   0
  -6 -10   4  133.40    2.69   0
  -6  10   4  137.26    3.48   0
   5 -10  -4  514.70    4.65   0
  -5 -10   4  496.10    4.65   0
  -5  10   4  491.93    4.98   0
  -5 -10   4  525.65    5.37   0
   5 -10  -4  470.70    4.18   0
  -5  10   4  458.79    4.21   0
   4 -10  -4   90.80    2.51   0
  -4 -10   4   92.63    3.04   0
  -4 -10   4  104.12    3.33   0
   4  10  -4   94.17    3.51   0
   4 -10  -4  104.31    3.34   0
  -4  10   4   93.06    3.27   0
  -4  10   4   89.38    2.41   0
   3  10  -4  126.21    3.52   0
   3 -10  -4  136.98    3.54   0
  -3 -10   4  136.76    2.91   0
  -3  10   4  119.17    2.61   0
  -3  10   4  130.03    3.50   0
  -3 -10   4  127.56    2.55   0
   3 -10  -4  129.94    3.21   0
  -2  10   4   78.32    2.36   0
   2 -10  -4   90.78    3.43   0
  -2 -10   4   92.97    2.54   0
   2  10  -4   85.09    3.20   0
  -2 -10   4   82.45    2.32   0
  -2  10   4   83.46    2.73   0
   2 -10  -4   85.24    2.32   0
  -1 -10   4   29.66    2.69   0
  -1  10   4   27.40    1.90   0
  -1  10   4   28.93    2.97   0
  -1 -10   4   29.00    2.77   0
   1  10  -4   30.60    2.90   0
   1 -10  -4   29.66    1.95   0
   0 -10   4   58.61    2.86   0
   0  10  -4   61.91    3.07   0
   0  10   4   52.19    2.74   0
   0 -10   4   57.08    2.28   0
   0 -10  -4   55.18    2.17   0
   0  10   4   54.15    3.56   0
   1 -10   4    4.14    2.58   0
  -1  10  -4    3.90    2.74   0
   1 -10   4    2.08    1.79   0
  -1 -10  -4    1.32    1.83   0
   1  10   4    4.42    1.79   0
   2 -10   4    4.21    2.71   0
   2  10   4    0.39    2.66   0
  -2  10  -4    2.47    2.02   0
   2 -10   4    2.65    1.91   0
  -2 -10  -4    1.45    2.66   0
   3 -10   4   23.89    2.21   0
  -3  10  -4   28.11    2.13   0
   3  10   4   23.77    2.09   0
  -3 -10  -4   27.61    2.85   0
   3 -10   4   27.02    2.10   0
  -4  10  -4   55.89    2.33   0
   4  10   4   50.03    3.07   0
   4 -10   4   55.87    3.17   0
  -4 -10  -4   56.09    2.27   0
   4 -10   4   55.13    2.26   0
   5 -10   4   28.88    3.10   0
   5 -10   4   31.07    3.17   0
   5  10   4   26.77    2.33   0
  -5  10  -4   28.93    2.17   0
  -5 -10  -4   31.00    2.19   0
   5 -10   4   30.28    2.90   0
  -6  10  -4  278.17    4.01   0
   6 -10   4  264.32    4.81   0
   6  10   4  243.84    3.59   0
   6 -10   4  252.89    4.74   0
  -6 -10  -4  284.49    4.36   0
   6 -10   4  295.43    3.96   0
  -7  10  -4   50.16    3.30   0
   7  10   4   40.46    3.41   0
   7 -10   4   41.71    3.50   0
   7 -10   4   44.94    3.18   0
  -7 -10  -4   45.50    3.35   0
   7 -10   4   41.28    3.51   0
   8 -10   4    3.53    4.04   0
   8 -10   4    4.28    3.14   0
  -8  10  -4    4.20    2.28   0
   8 -10   4    2.86    4.05   0
  -8 -10  -4    4.17    3.21   0
   9 -10   4   21.36    3.36   0
  -9 -10  -4   21.48    3.58   0
  -9  10  -4   18.88    2.54   0
 -11 -11   4   -1.12    2.40   0
 -11 -11   4    0.50    3.45   0
 -11 -11   4    0.40    3.41   0
 -11 -11   4    1.09    2.27   0
 -11  11   4   -0.61    2.39   0
 -11  11   4    3.94    3.39   0
  11 -11  -4    0.96    3.41   0
 -10  11   4  162.63    4.25   0
 -10 -11   4  174.45    4.40   0
 -10 -11   4  168.10    3.82   0
  10 -11  -4  158.49    3.43   0
 -10  11   4  175.46    3.84   0
 -10 -11   4  154.67    3.20   0
  -9 -11   4  370.40    4.67   0
  -9 -11   4  395.42    5.28   0
  -9 -11   4  374.50    4.59   0
  -9  11   4  363.93    4.90   0
  -9  11   4  361.33    3.84   0
   9 -11  -4  387.79    4.94   0
  -8  11   4  159.67    3.85   0
   8 -11  -4  167.44    3.92   0
  -8 -11   4  180.65    4.09   0
  -8 -11   4  158.48    2.97   0
  -8  11   4  160.90    3.75   0
  -8 -11   4  167.16    3.63   0
  -7 -11   4  834.83    5.12   0
  -7 -11   4  825.45    5.10   0
   7 -11  -4  948.92    6.10   0
   7 -11  -4  841.62    6.01   0
  -7  11   4  825.30    5.98   0
  -7  11   4  845.23    5.94   0
  -7 -11   4  921.08    6.88   0
   6 -11  -4  959.26    6.16   0
  -6 -11   4  935.41    5.38   0
  -6  11   4  895.12    5.62   0
  -6 -11   4  958.05    5.87   0
  -6 -11   4  988.40    6.60   0
  -6  11   4  931.67    6.01   0
   6 -11  -4 1041.48    6.30   0
   5 -11  -4  955.44    6.02   0
   5 -11  -4 1015.76    6.52   0
  -5 -11   4  988.73    6.54   0
  -5 -11   4  936.76    5.34   0
  -5  11   4  924.25    6.00   0
  -5  11   4  932.38    6.31   0
   4 -11  -4  870.41    5.31   0
   4 -11  -4  941.06    6.47   0
  -4 -11   4  985.52    6.68   0
   4  11  -4  872.88    6.66   0
  -4  11   4  840.11    5.68   0
  -4  11   4  857.52    5.86   0
  -4 -11   4  880.34    5.16   0
  -3  11   4  991.89    5.94   0
  -3 -11   4 1001.05    5.44   0
  -3 -11   4 1037.69    6.33   0
   3 -11  -4 1091.05    7.29   0
  -3  11   4 1000.34    6.97   0
   3 -11  -4 1002.42    5.69   0
   3  11  -4  999.10    6.78   0
  -2  11   4  454.58    4.48   0
   2 -11  -4  503.16    5.74   0
   2  11  -4  455.27    4.56   0
  -2 -11   4  482.95    4.56   0
  -2  11   4  466.32    5.55   0
  -2 -11   4  475.04    3.98   0
   2 -11  -4  496.85    4.59   0
  -1  11   4  136.95    3.92   0
  -1 -11   4  145.67    3.34   0
   1  11  -4  136.74    2.93   0
  -1 -11   4  142.78    3.32   0
   1 -11  -4  144.88    3.32   0
  -1  11   4  127.42    2.56   0
   0 -11   4  131.11    2.60   0
   0  11   4  115.69    2.48   0
   0  11  -4  136.12    3.46   0
   0  11   4  137.47    4.94   0
   0 -11   4  132.29    2.72   0
   0 -11  -4  127.46    2.67   0
  -1  11  -4   89.60    2.48   0
   1  11   4   80.90    2.42   0
   1 -11   4   91.34    3.06   0
   1 -11   4   91.38    2.41   0
  -1 -11  -4   91.22    2.47   0
   2 -11   4  539.04    4.23   0
   2  11   4  495.95    4.15   0
   2 -11   4  528.91    4.57   0
  -2  11  -4  579.01    4.92   0
  -2 -11  -4  561.66    4.87   0
   3  11   4  769.08    5.06   0
  -3  11  -4  873.94    5.27   0
  -3 -11  -4  885.09    5.75   0
   3 -11   4  873.19    6.17   0
   3 -11   4  885.76    5.70   0
   4  11   4  270.56    3.46   0
   4 -11   4  294.22    4.35   0
   4 -11   4  288.67    3.39   0
  -4 -11  -4  289.76    3.51   0
  -4  11  -4  295.92    3.46   0
   5 -11   4  272.88    4.52   0
   5  11   4  260.06    4.15   0
   5 -11   4  271.31    3.98   0
  -5  11  -4  287.76    3.43   0
  -5 -11  -4  292.54    4.20   0
   5 -11   4  288.09    3.39   0
   6 -11   4  475.29    4.03   0
   6  11   4  418.13    4.32   0
  -6  11  -4  469.97    4.03   0
   6 -11   4  441.24    5.59   0
   6 -11   4  452.50    5.60   0
  -6 -11  -4  472.10    5.07   0
   7  11   4  101.98    3.03   0
  -7 -11  -4  123.79    3.76   0
  -7  11  -4  119.44    2.80   0
   7 -11   4  109.57    4.06   0
   7 -11   4  118.97    2.79   0
   7 -11   4  116.69    4.14   0
   8 -11   4   86.91    4.07   0
   8 -11   4   85.22    4.77   0
  -8  11  -4   96.66    3.67   0
   8 -11   4   89.62    3.55   0
  -8 -11  -4   91.14    3.80   0
 -10 -12   4   22.01    2.44   0
 -10 -12   4   21.21    3.59   0
 -10  12   4   20.89    3.41   0
 -10 -12   4   19.42    2.47   0
  10 -12  -4   23.97    3.47   0
 -10  12   4   19.66    3.52   0
  -9 -12   4  184.53    3.25   0
   9 -12  -4  192.62    4.25   0
  -9 -12   4  181.86    3.26   0
  -9  12   4  192.68    4.27   0
  -9 -12   4  192.60    3.89   0
  -9  12   4  186.22    3.27   0
   8 -12  -4   19.51    2.31   0
  -8  12   4   18.24    3.21   0
  -8 -12   4   18.69    3.05   0
  -8 -12   4   21.89    2.28   0
  -8 -12   4   22.73    3.23   0
  -8  12   4   17.85    2.34   0
  -7 -12   4   60.50    3.46   0
   7 -12  -4   54.58    3.13   0
   7 -12  -4   53.72    2.54   0
  -7 -12   4   47.41    2.29   0
  -7  12   4   50.94    2.45   0
  -7 -12   4   53.01    2.37   0
  -7  12   4   49.02    2.48   0
  -6 -12   4   10.74    2.07   0
   6 -12  -4    9.00    2.94   0
   6 -12  -4   11.77    2.97   0
  -6 -12   4   13.30    2.98   0
  -6  12   4   11.46    2.12   0
  -6  12   4   12.68    2.25   0
  -6 -12   4   13.22    2.91   0
   5 -12  -4   60.73    3.14   0
   5 -12  -4   66.05    3.27   0
  -5 -12   4   58.19    2.24   0
  -5  12   4   56.99    2.43   0
  -5 -12   4   66.73    3.44   0
  -5  12   4   58.54    2.43   0
   4 -12  -4   12.89    2.82   0
  -4  12   4   13.96    2.92   0
   4 -12  -4   13.17    2.91   0
   4  12  -4   12.10    3.09   0
  -4 -12   4   10.27    2.02   0
  -4 -12   4   13.67    2.89   0
  -4  12   4   10.98    1.99   0
   3  12  -4   44.89    3.20   0
  -3  12   4   45.36    2.97   0
   3 -12  -4   49.13    3.12   0
  -3  12   4   44.39    3.14   0
  -3 -12   4   49.07    3.04   0
  -3 -12   4   46.63    2.19   0
   3 -12  -4   49.46    3.08   0
  -2  12   4    2.53    2.72   0
   2 -12  -4    3.53    2.75   0
  -2  12   4    2.16    2.84   0
  -2 -12   4    3.29    1.86   0
   2  12  -4    3.05    2.95   0
  -2 -12   4    1.08    2.75   0
   2 -12  -4    4.19    2.01   0
  -1 -12   4  227.46    3.67   0
   1  12  -4  226.80    3.35   0
   1 -12  -4  234.12    3.67   0
  -1  12   4  210.95    3.05   0
  -1  12   4  225.48    4.59   0
  -1 -12   4  246.85    3.91   0
   0  12   4   34.82    2.11   0
   0  12  -4   35.51    2.33   0
   0  12   4   39.28    3.92   0
   0 -12   4   38.20    2.07   0
   0 -12  -4   37.95    2.14   0
   0 -12   4   36.47    2.86   0
   1  12   4  169.65    3.51   0
  -1  12  -4  200.79    3.74   0
   1 -12   4  185.46    3.58   0
   1 -12   4  181.97    3.04   0
  -1 -12  -4  191.71    2.92   0
   2 -12   4   22.20    2.86   0
  -2  12  -4   21.81    2.14   0
   2  12   4   21.31    2.19   0
  -2 -12  -4   21.32    2.85   0
   2 -12   4   23.39    2.90   0
   3  12   4    1.29    2.07   0
   3 -12   4    3.88    2.88   0
  -3  12  -4    1.92    2.96   0
   3 -12   4   -0.38    2.05   0
  -3 -12  -4    2.58    2.89   0
   4 -12   4   20.08    3.03   0
   4  12   4   16.91    2.94   0
  -4  12  -4   17.35    3.18   0
  -4 -12  -4   20.18    2.20   0
   4 -12   4   17.51    2.19   0
   5 -12   4   88.91    2.92   0
   5  12   4   91.48    3.49   0
   5 -12   4   94.63    2.58   0
   5 -12   4   91.35    3.72   0
  -5 -12  -4   93.68    3.47   0
  -5  12  -4   98.55    3.57   0
   6 -12   4   13.88    3.26   0
   6  12   4   13.89    2.39   0
   6 -12   4   18.04    3.27   0
  -6  12  -4   20.19    2.39   0
  -6 -12  -4   17.26    2.29   0
   6 -12   4   16.94    2.24   0
   7  12   4   17.35    3.38   0
   7 -12   4   16.45    3.38   0
  -7 -12  -4   17.40    2.39   0
   7 -12   4   18.84    3.23   0
  -7  12  -4   12.15    2.38   0
   7 -12   4   16.79    4.11   0
   8 -12   4   13.14    4.38   0
   8 -12   4   12.50    4.34   0
   8 -12   4   15.01    2.38   0
  -8  12  -4   14.10    2.48   0
  -8 -12  -4   17.21    3.40   0
 -10 -13   4   41.01    2.67   0
  10 -13  -4   42.12    2.82   0
 -10 -13   4   47.55    3.51   0
 -10  13   4   40.49    2.62   0
 -10 -13   4   51.16    3.86   0
 -10  13   4   42.32    3.75   0
  -9 -13   4  131.92    3.74   0
   9 -13  -4  121.23    3.18   0
  -9 -13   4  134.17    3.78   0
  -9 -13   4  144.55    4.31   0
  -9  13   4  131.80    3.99   0
  -9  13   4  122.72    3.13   0
   8 -13  -4  366.73    4.78   0
  -8  13   4  367.40    4.80   0
  -8 -13   4  407.93    5.41   0
  -8 -13   4  362.67    4.48   0
  -8  13   4  343.94    3.96   0
  -8 -13   4  368.77    3.84   0
   7 -13  -4  189.32    3.85   0
   7 -13  -4  159.12    3.11   0
  -7 -13   4  171.75    3.70   0
  -7  13   4  155.91    3.80   0
  -7 -13   4  169.25    3.44   0
  -7 -13   4  163.71    3.73   0
  -7  13   4  162.98    3.82   0
   6 -13  -4  387.26    3.98   0
  -6 -13   4  407.21    4.60   0
  -6 -13   4  397.82    3.78   0
   6 -13  -4  434.51    4.78   0
  -6 -13   4  377.89    3.71   0
  -6  13   4  381.29    4.11   0
  -6  13   4  383.54    4.54   0
  -5 -13   4  141.13    3.33   0
   5 -13  -4  154.69    3.66   0
  -5  13   4  130.54    2.85   0
  -5  13   4  132.80    3.01   0
   5 -13  -4  137.99    2.84   0
  -5 -13   4  147.49    3.75   0
   4 -13  -4  301.79    4.46   0
  -4 -13   4  299.43    4.40   0
  -4  13   4  269.72    3.36   0
  -4  13   4  271.43    3.75   0
   4  13  -4  268.03    4.52   0
  -4 -13   4  286.93    3.86   0
   4 -13  -4  283.45    3.37   0
   3 -13  -4  921.14    6.92   0
  -3 -13   4  829.14    4.97   0
   3  13  -4  793.71    5.86   0
  -3  13   4  845.27    5.60   0
  -3  13   4  854.91    6.65   0
  -3 -13   4  904.30    6.40   0
   3 -13  -4  895.69    5.66   0
   2 -13  -4  217.04    4.32   0
  -2 -13   4  200.33    2.97   0
  -2  13   4  193.70    4.17   0
  -2  13   4  198.34    3.62   0
   2  13  -4  195.96    3.97   0
   2 -13  -4  199.66    2.96   0
  -2 -13   4  202.22    3.24   0
   1  13  -4  340.27    4.59   0
  -1 -13   4  356.34    4.14   0
  -1  13   4  344.18    5.43   0
   1 -13  -4  361.81    4.09   0
  -1 -13   4  366.60    4.44   0
  -1  13   4  314.71    3.46   0
   0 -13   4   30.63    2.87   0
   0  13   4   30.75    3.41   0
   0  13   4   29.71    2.90   0
   0 -13   4   32.13    2.27   0
   0  13  -4   33.16    2.33   0
   0 -13  -4   29.95    2.08   0
   1  13   4   32.63    3.00   0
   1 -13   4   37.99    2.31   0
   1 -13   4   37.07    2.13   0
  -1  13  -4   39.93    2.39   0
  -1 -13  -4   34.92    2.19   0
   2 -13   4    3.32    2.02   0
   2 -13   4    3.07    1.97   0
   2  13   4    2.65    2.05   0
  -2  13  -4    3.91    2.07   0
  -2 -13  -4    3.69    2.03   0
   3 -13   4  148.93    2.98   0
   3  13   4  135.56    2.83   0
  -3  13  -4  162.04    3.79   0
  -3 -13  -4  159.55    3.54   0
   3 -13   4  154.61    3.59   0
   4 -13   4    5.08    3.01   0
   4  13   4    5.83    3.02   0
  -4  13  -4    7.50    3.06   0
  -4 -13  -4    3.43    2.15   0
   4 -13   4    5.08    2.10   0
   5  13   4  128.29    3.02   0
   5 -13   4  151.61    4.03   0
  -5 -13  -4  151.39    3.04   0
   5 -13   4  146.31    2.93   0
  -5  13  -4  153.52    3.78   0
   6  13   4  295.87    3.91   0
   6 -13   4  297.46    4.26   0
   6 -13   4  336.68    5.13   0
  -6  13  -4  339.80    4.65   0
  -6 -13  -4  345.67    4.63   0
   6 -13   4  371.43    4.51   0
  -7  13  -4   86.75    3.77   0
   7 -13   4   75.94    3.91   0
   7 -13   4   70.03    3.02   0
  -7 -13  -4   84.79    2.88   0
   7 -13   4   82.66    2.67   0
  -9 -14   4    6.15    2.34   0
  -9 -14   4   12.00    3.31   0
  -9  14   4   10.56    2.47   0
   9 -14  -4   10.30    3.42   0
  -9  14   4   10.70    3.49   0
  -9 -14   4   11.03    3.44   0
  -8 -14   4   76.86    2.75   0
  -8  14   4   83.11    3.74   0
   8 -14  -4   84.67    3.71   0
  -8 -14   4   79.48    3.44   0
  -8 -14   4   98.57    3.89   0
  -8  14   4   87.39    3.71   0
   7 -14  -4   98.28    2.83   0
   7 -14  -4   93.94    3.53   0
  -7 -14   4  109.65    3.90   0
  -7 -14   4   99.20    3.44   0
  -7  14   4   88.52    2.83   0
  -7 -14   4   98.44    2.69   0
  -7  14   4   88.17    2.89   0
   6 -14  -4   17.16    3.05   0
   6 -14  -4   20.38    2.28   0
  -6 -14   4   20.56    3.13   0
  -6  14   4   20.79    3.29   0
  -6 -14   4   17.69    2.29   0
  -6 -14   4   21.59    2.99   0
  -6  14   4   16.28    3.16   0
   5 -14  -4  120.97    2.76   0
   5 -14  -4  127.14    3.04   0
  -5 -14   4  125.09    3.10   0
  -5 -14   4  118.69    2.65   0
  -5  14   4  113.03    2.83   0
  -5  14   4  118.79    2.98   0
   4 -14  -4   65.60    2.64   0
  -4 -14   4   63.79    2.61   0
  -4  14   4   60.58    2.62   0
   4  14  -4   57.65    2.73   0
  -4  14   4   58.85    2.44   0
  -4 -14   4   65.29    3.07   0
   4 -14  -4   65.57    2.41   0
  -3 -14   4   86.77    2.52   0
   3 -14  -4   88.76    3.50   0
   3  14  -4   81.78    2.79   0
  -3  14   4   83.07    3.38   0
  -3 -14   4   86.95    2.64   0
  -3  14   4   85.87    3.55   0
   3 -14  -4   88.33    3.38   0
   2  14  -4   69.09    3.56   0
   2 -14  -4   76.00    3.59   0
  -2 -14   4   70.38    2.45   0
  -2 -14   4   73.93    3.30   0
  -2  14   4   66.70    2.38   0
  -2  14   4   73.97    3.62   0
   2 -14  -4   78.63    3.25   0
  -1  14   4   56.23    3.15   0
  -1 -14   4   52.78    2.28   0
   1  14  -4   60.67    3.37   0
  -1  14   4   57.39    3.65   0
   1 -14  -4   54.88    2.27   0
  -1 -14   4   60.60    3.12   0
   0  14   4  191.77    3.00   0
   0  14   4  212.59    5.80   0
   0  14  -4  223.48    4.02   0
   0 -14   4  214.63    3.14   0
   0 -14   4  220.61    3.90   0
   0 -14  -4  227.76    3.70   0
   1 -14   4   37.41    2.96   0
   1  14   4   32.40    2.25   0
  -1  14  -4   36.67    3.11   0
   1 -14   4   37.73    3.07   0
  -1 -14  -4   34.18    3.08   0
   2  14   4   10.49    3.07   0
  -2  14  -4   14.32    3.11   0
   2 -14   4   13.31    2.98   0
   2 -14   4   13.60    2.12   0
  -2 -14  -4   10.76    2.15   0
   3 -14   4   12.86    2.29   0
   3  14   4   11.93    2.28   0
   3 -14   4   12.45    2.23   0
  -3  14  -4   13.83    2.40   0
  -3 -14  -4   12.96    2.11   0
   4 -14   4  113.67    3.45   0
   4  14   4  100.08    2.79   0
   4 -14   4  103.37    2.93   0
  -4  14  -4  111.94    3.64   0
  -4 -14  -4  113.93    3.58   0
  -5 -14  -4   41.81    3.42   0
   5  14   4   38.16    3.44   0
  -5  14  -4   39.98    2.60   0
   5 -14   4   38.89    2.54   0
   5 -14   4   42.92    2.51   0
   6 -14   4   54.95    3.71   0
   6  14   4   56.42    3.58   0
   6 -14   4   57.97    3.68   0
  -6  14  -4   70.07    3.63   0
  -6 -14  -4   64.18    3.51   0
   6 -14   4   66.01    3.46   0
  -8 -15   4   90.79    2.88   0
  -8  15   4   98.19    3.97   0
   8 -15  -4   94.42    3.84   0
  -8 -15   4  102.41    3.66   0
  -8  15   4  104.08    3.94   0
  -8 -15   4  108.84    4.11   0
  -7 -15   4    2.50    3.19   0
   7 -15  -4   -0.11    2.25   0
  -7 -15   4    2.28    3.29   0
  -7 -15   4    2.84    2.26   0
  -7  15   4    3.64    3.36   0
  -7  15   4    2.77    2.35   0
   6 -15  -4    3.50    3.05   0
  -6 -15   4   -0.43    2.20   0
   6 -15  -4    0.99    3.22   0
  -6 -15   4    1.43    3.17   0
  -6  15   4    3.25    3.23   0
  -6  15   4    1.25    2.32   0
  -6 -15   4    2.33    2.16   0
  -5  15   4   45.77    3.35   0
  -5 -15   4   39.89    2.38   0
  -5 -15   4   46.81    3.39   0
  -5  15   4   43.64    3.41   0
   5 -15  -4   40.82    2.38   0
   5 -15  -4   49.38    3.42   0
   4  15  -4  321.45    5.13   0
  -4 -15   4  356.17    3.62   0
   4 -15  -4  399.16    4.96   0
  -4 -15   4  360.67    4.91   0
  -4  15   4  349.79    4.85   0
  -4  15   4  350.25    4.39   0
   4 -15  -4  349.19    3.74   0
   3 -15  -4   67.38    2.71   0
   3 -15  -4   63.86    2.50   0
  -3  15   4   56.89    2.68   0
  -3 -15   4   66.73    3.20   0
  -3  15   4   61.19    2.53   0
  -3 -15   4   65.31    2.61   0
   3  15  -4   63.20    3.64   0
   2  15  -4  296.56    4.61   0
  -2  15   4  304.69    5.07   0
  -2 -15   4  316.72    4.07   0
  -2  15   4  288.81    4.12   0
  -2 -15   4  319.85    4.44   0
   2 -15  -4  301.26    3.42   0
  -1  15   4  340.87    3.63   0
   1 -15  -4  378.61    3.70   0
   1  15  -4  347.93    4.08   0
  -1 -15   4  380.01    4.26   0
  -1  15   4  377.92    6.32   0
  -1 -15   4  372.78    4.56   0
   0  15   4  311.29    6.68   0
   0  15   4  290.43    4.08   0
   0  15  -4  329.24    4.54   0
   0 -15   4  341.78    4.20   0
   0 -15   4  319.21    3.77   0
   0 -15  -4  318.14    3.50   0
   1  15   4  306.68    3.64   0
  -1  15  -4  361.34    4.58   0
   1 -15   4  376.63    4.50   0
   1 -15   4  360.85    4.40   0
  -1 -15  -4  352.35    3.74   0
   2  15   4   24.79    3.19   0
   2 -15   4   23.83    3.11   0
  -2  15  -4   27.91    3.30   0
  -2 -15  -4   29.09    2.26   0
   2 -15   4   23.85    2.23   0
   3  15   4   89.62    2.72   0
  -3  15  -4   96.24    2.80   0
   3 -15   4   97.88    2.80   0
  -3 -15  -4  101.03    2.76   0
   3 -15   4  108.72    3.53   0
   4  15   4   12.22    3.30   0
  -4  15  -4   15.05    3.20   0
   4 -15   4   13.97    2.40   0
  -4 -15  -4   15.08    2.32   0
   4 -15   4   16.89    2.31   0
   5  15   4   -0.85    2.34   0
   5 -15   4    2.69    2.32   0
  -5  15  -4    3.16    2.41   0
   5 -15   4   -0.22    3.41   0
  -5 -15  -4    2.78    2.37   0
  -7 -16   4   13.37    2.34   0
   7 -16  -4   13.47    2.53   0
  -7 -16   4   16.09    3.30   0
  -7  16   4   16.43    3.49   0
  -7 -16   4   16.82    3.36   0
  -7  16   4   11.58    2.56   0
   6 -16  -4   93.32    3.75   0
  -6  16   4   87.66    3.09   0
  -6  16   4   92.32    3.85   0
  -6 -16   4   96.14    3.55   0
  -6 -16   4   88.03    3.56   0
  -6 -16   4   97.83    3.91   0
   5 -16  -4   57.98    3.54   0
  -5 -16   4   50.32    2.43   0
  -5  16   4   46.63    2.60   0
  -5  16   4   51.16    3.56   0
   5 -16  -4   45.67    2.52   0
  -5 -16   4   52.86    3.53   0
   4 -16  -4    5.52    3.11   0
   4 -16  -4    2.51    3.21   0
  -4 -16   4    1.73    3.01   0
  -4  16   4    4.15    3.31   0
  -4 -16   4    4.51    3.09   0
  -4  16   4    1.62    2.32   0
  -3  16   4  139.36    3.80   0
   3  16  -4  129.83    3.32   0
  -3 -16   4  140.85    2.87   0
  -3  16   4  146.41    4.24   0
   3 -16  -4  144.89    2.88   0
  -3 -16   4  158.36    3.94   0
  -2  16   4   41.77    3.62   0
  -2 -16   4   42.28    2.41   0
  -2 -16   4   41.75    2.54   0
   2  16  -4   39.09    2.63   0
   2 -16  -4   42.30    3.23   0
  -2  16   4   36.55    2.53   0
  -1  16   4   -0.31    2.24   0
   1  16  -4    1.22    3.36   0
   1 -16  -4    0.72    2.17   0
  -1 -16   4    3.40    2.18   0
  -1  16   4    1.37    3.32   0
  -1 -16   4    2.07    2.18   0
   0 -16   4   -0.11    2.16   0
   0  16   4    0.22    3.07   0
   0  16  -4   -0.07    2.35   0
   0  16   4    1.67    4.04   0
   0 -16  -4    3.01    3.01   0
   0 -16   4    0.59    3.12   0
   1  16   4    2.80    3.07   0
  -1  16  -4    4.26    3.33   0
   1 -16   4    3.55    2.19   0
   1 -16   4    2.98    3.08   0
  -1 -16  -4    4.51    2.20   0
  -2 -16  -4  262.90    4.15   0
   2  16   4  237.02    4.12   0
  -2  16  -4  262.75    4.47   0
   2 -16   4  250.88    3.63   0
   2 -16   4  261.47    4.33   0
   3  16   4    8.52    3.32   0
   3 -16   4   12.63    2.35   0
  -3  16  -4   12.57    2.49   0
  -3 -16  -4   13.52    3.21   0
   3 -16   4   10.40    2.26   0
  -4  16  -4    4.10    3.39   0
   4  16   4    4.42    3.46   0
   4 -16   4    4.76    3.28   0
  -4 -16  -4    5.75    2.34   0
   4 -16   4    3.75    3.30   0
   5 -17  -4  184.79    4.02   0
  -5  17   4  144.28    3.23   0
  -5  17   4  183.32    4.35   0
  -5 -17   4  175.74    4.46   0
  -5 -17   4  177.54    3.92   0
   4 -17  -4   47.23    2.61   0
  -4  17   4   47.28    3.60   0
  -4 -17   4   51.94    2.50   0
  -4  17   4   51.11    3.81   0
  -4 -17   4   54.53    3.50   0
   3 -17  -4    4.18    2.36   0
  -3  17   4    6.30    3.50   0
  -3  17   4    5.96    2.38   0
   3  17  -4    1.98    3.61   0
  -3 -17   4    5.94    3.20   0
  -3 -17   4    1.17    3.19   0
  -2  17   4  129.47    3.92   0
  -2 -17   4  117.83    2.85   0
   2  17  -4  123.91    4.10   0
  -2  17   4  125.68    4.36   0
  -2 -17   4  127.26    3.19   0
   2 -17  -4  124.67    2.93   0
  -1  17   4  134.65    3.75   0
   1  17  -4  136.06    4.08   0
  -1 -17   4  150.73    3.84   0
  -1  17   4  144.58    5.44   0
  -1 -17   4  135.65    3.20   0
   1 -17  -4  149.14    3.65   0
   0  17  -4   89.82    3.05   0
   0  17   4   92.09    5.30   0
   0  17   4   91.58    2.84   0
   0 -17  -4  108.50    3.59   0
   0 -17   4   94.31    2.77   0
   0 -17   4  103.23    2.96   0
   1  17   4   11.28    3.29   0
  -1  17  -4   10.58    3.53   0
   1 -17   4   11.69    2.30   0
   1 -17   4    6.31    2.38   0
  -1 -17  -4    6.67    2.36   0
   2  17   4   11.59    3.36   0
  -2  17  -4   12.75    3.55   0
   2 -17   4    9.15    2.42   0
   2 -17   4    7.97    2.42   0
  -2 -17  -4   12.79    3.18   0
 -14   1   5   48.61    2.72   0
 -14  -1   5   49.26    4.70   0
 -14   1   5   46.87    3.99   0
 -14  -1   5   50.16    3.85   0
 -14  -1   5   45.08    2.74   0
 -14   1   5   48.19    4.12   0
 -13   1   5   62.48    3.94   0
 -13  -1   5   64.08    3.69   0
 -13  -1   5   63.61    3.51   0
 -13  -1   5   63.28    3.97   0
 -13   1   5   64.77    3.47   0
 -12   1   5   73.81    3.79   0
 -12  -1   5   77.51    3.78   0
 -12  -1   5   78.99    3.34   0
 -12   1   5   70.44    3.42   0
 -11   1   5  288.03    4.16   0
 -11   1   5  277.96    4.97   0
 -11  -1   5  302.80    4.97   0
 -11  -1   5  278.48    3.39   0
  11  -1  -5  273.73    4.71   0
 -10   1   5   13.16    2.10   0
  10  -1  -5   16.98    2.09   0
 -10  -1   5   18.57    2.81   0
 -10   1   5   18.93    3.03   0
 -10  -1   5   18.39    2.82   0
   9   1  -5    1.33    1.81   0
  -9  -1   5    3.54    1.96   0
  -9   1   5    3.78    2.68   0
  -9   1   5    0.96    1.90   0
   9  -1  -5    1.92    2.55   0
  -9  -1   5    3.38    2.65   0
   8  -1  -5  123.26    3.52   0
  -8   1   5  130.65    3.27   0
  -8   1   5  130.21    3.66   0
   8   1  -5  121.55    2.83   0
  -8  -1   5  129.97    3.51   0
  -7   1   5   15.92    2.00   0
   7   1  -5   13.85    2.49   0
   7  -1  -5   14.50    2.54   0
  -7   1   5   14.52    2.00   0
  -7  -1   5   15.39    2.57   0
  -6  -1   5  917.77    6.40   0
  -6   1   5  933.22    6.94   0
   6   1  -5  857.65    6.13   0
   6  -1  -5  934.76    6.73   0
  -5  -1   5  214.74    3.48   0
   5   1  -5  209.82    3.84   0
   5  -1  -5  204.31    3.40   0
  -5   1   5  216.41    3.99   0
   4  -1  -5   33.14    2.86   0
  -4  -1   5   31.68    2.80   0
  -4   1   5   33.37    2.94   0
   4   1  -5   31.34    2.75   0
  -3  -1   5   15.76    2.65   0
  -3  -1   5    3.34    2.74   0
  -3   1   5    2.02    2.61   0
   3  -1  -5    3.63    1.84   0
   3   1  -5    3.60    1.82   0
  -2   1   5   33.78    2.93   0
  -2  -1   5   35.46    2.82   0
  -2   1   5   32.09    3.13   0
   2   1  -5   32.83    2.20   0
   2  -1  -5   34.89    2.88   0
  -2  -1   5   34.17    3.15   0
  -1  -1   5 2042.78   10.69   0
   1   1  -5 1902.77   10.57   0
  -1  -1   5 1949.30   10.45   0
  -1   1   5 1948.88   11.71   0
   1   1  -5 1918.66   10.22   0
   1  -1  -5 2017.75   10.61   0
  -1   1   5 1947.61   10.28   0
   0  -1  -5 1467.93   10.31   0
   0  -1   5 1493.78    9.02   0
   0   1  -5 1465.50    8.92   0
   0   1   5 1498.91   10.38   0
   0   1   5 1437.64    9.11   0
   0   1  -5 1451.48    9.43   0
   0  -1  -5 1500.67    9.27   0
   0  -1   5 1529.27    9.63   0
   1   1   5  653.49    6.38   0
  -1   1  -5  712.51    6.25   0
   1  -1   5  695.95    6.31   0
  -1  -1  -5  719.78    7.27   0
   1   1   5  688.37    6.94   0
   1  -1   5  722.99    7.11   0
  -1   1  -5  701.12    7.02   0
  -1  -1  -5  717.56    7.00   0
   2   1   5  691.04    7.03   0
   2  -1   5  753.02    7.68   0
  -2  -1  -5  796.83    7.23   0
  -2   1  -5  800.63    6.62   0
   2   1   5  738.97    6.80   0
   2  -1   5  725.31    5.95   0
  -2   1  -5  722.72    7.56   0
  -2  -1  -5  764.26    7.45   0
  -3  -1  -5 1297.11    8.60   0
   3  -1   5 1186.31   10.32   0
  -3   1  -5 1199.60   10.58   0
   3   1   5 1181.38    8.16   0
  -3   1  -5 1243.20    7.37   0
   3  -1   5 1163.65    7.34   0
  -3  -1  -5 1269.36   10.02   0
   3   1   5 1095.56    9.10   0
  -4  -1  -5  611.44    7.67   0
  -4   1  -5  622.63    5.43   0
  -4  -1  -5  626.28    5.94   0
   4   1   5  562.60    7.45   0
   4   1   5  568.64    5.67   0
  -4   1  -5  581.52    8.61   0
   4  -1   5  558.23    4.87   0
   4  -1   5  545.19    8.38   0
  -5  -1  -5  292.40    6.23   0
   5  -1   5  258.87   10.06   0
  -5  -1  -5  322.60    4.59   0
  -5   1  -5  293.95    3.63   0
   5  -1   5  268.14    3.97   0
   5   1   5  270.92    3.83   0
   5   1   5  273.01    6.35   0
   6   1   5   54.61    3.08   0
  -6  -1  -5   53.95    5.57   0
   6  -1   5   53.31    3.00   0
  -6   1  -5   56.46    2.43   0
  -6  -1  -5   55.79    3.13   0
   7  -1   5   -0.28    2.78   0
  -7   1  -5    2.07    2.00   0
  -7  -1  -5    4.38    2.78   0
   7   1   5    2.44    2.78   0
   8   1   5   76.39    3.42   0
  -8  -1  -5   74.51    2.65   0
   8  -1   5   70.39    3.40   0
  -8   1  -5   75.54    3.37   0
   9  -1   5  464.40    4.96   0
  -9   1  -5  484.44    4.51   0
   9   1   5  465.23    5.15   0
  -9  -1  -5  453.13    4.58   0
 -10  -1  -5  160.10    3.37   0
  10  -1   5  157.79    3.96   0
 -10   1  -5  167.35    4.02   0
 -14  -2   5  133.88    5.60   0
 -14  -2   5  128.03    4.68   0
 -14   2   5  120.64    4.86   0
 -14   2   5  126.89    5.62   0
 -14   2   5  121.58    3.15   0
 -14  -2   5  120.05    3.19   0
 -13   2   5    5.84    3.20   0
 -13  -2   5    0.90    3.16   0
 -13  -2   5    1.98    3.43   0
 -13   2   5    3.47    4.04   0
 -13  -2   5    2.58    2.36   0
 -12   2   5    9.13    3.16   0
 -12  -2   5   11.46    3.17   0
 -12  -2   5    9.33    3.09   0
  12  -2  -5   10.43    3.10   0
 -12  -2   5    9.21    3.18   0
 -12   2   5   13.74    3.12   0
 -11  -2   5   31.97    2.44   0
 -11   2   5   34.35    3.34   0
  11  -2  -5   29.56    3.09   0
 -11  -2   5   38.20    3.22   0
 -11   2   5   34.92    2.30   0
 -10   2   5  184.30    3.63   0
 -10  -2   5  192.19    3.66   0
 -10   2   5  183.60    4.21   0
  10  -2  -5  178.48    4.01   0
 -10  -2   5  198.56    4.13   0
  -9   2   5    5.82    2.03   0
  -9  -2   5    6.37    1.97   0
  -9   2   5    7.10    2.71   0
   9  -2  -5    5.61    2.61   0
  -9  -2   5    5.08    2.71   0
  -8   2   5  267.40    3.33   0
  -8  -2   5  277.85    3.81   0
  -8   2   5  280.17    4.53   0
   8  -2  -5  267.95    3.81   0
   8   2  -5  275.35    4.20   0
  -7   2   5  453.47    4.20   0
  -7   2   5  478.47    5.23   0
  -7  -2   5  492.43    5.05   0
   7  -2  -5  445.06    4.61   0
   7   2  -5  465.11    4.83   0
   6  -2  -5  382.50    4.72   0
  -6   2   5  366.58    3.97   0
   6   2  -5  359.26    4.16   0
  -6  -2   5  387.03    4.34   0
  -6   2   5  385.85    4.90   0
  -5  -2   5   45.32    2.19   0
  -5   2   5   45.12    3.14   0
   5   2  -5   41.94    2.12   0
   5  -2  -5   46.18    2.96   0
  -4   2   5   53.47    2.47   0
  -4  -2   5   52.10    2.28   0
  -4  -2   5   48.14    2.32   0
   4   2  -5   56.99    2.91   0
   4  -2  -5   52.50    2.96   0
  -3  -2   5  477.68    5.10   0
   3   2  -5  497.02    5.24   0
  -3  -2   5  505.91    5.01   0
  -3   2   5  504.05    5.44   0
   3  -2  -5  512.48    5.42   0
  -2   2   5  127.07    3.01   0
   2   2  -5  133.61    3.55   0
   2   2  -5  124.93    3.15   0
  -2  -2   5  136.07    3.61   0
  -2  -2   5  128.91    3.14   0
   2  -2  -5  132.75    3.04   0
  -1  -2   5   53.47    2.54   0
  -1   2   5   50.69    3.12   0
   1   2  -5   54.06    3.10   0
  -1   2   5   50.48    2.75   0
   1   2  -5   53.58    3.23   0
   1  -2  -5   52.58    3.09   0
  -1  -2   5   54.29    2.53   0
   0   2  -5  420.69    5.39   0
   0   2   5  411.72    5.29   0
   0  -2   5  412.43    5.06   0
   0   2  -5  436.18    5.30   0
   0   2   5  441.85    6.42   0
   0  -2  -5  418.70    6.34   0
   0  -2   5  429.10    4.83   0
   0  -2  -5  439.47    5.44   0
   1   2   5  237.16    3.97   0
   1  -2   5  266.81    4.28   0
   1  -2   5  260.94    3.81   0
  -1   2  -5  254.79    4.21   0
   1   2   5  269.10    5.03   0
  -1  -2  -5  274.61    4.65   0
  -1   2  -5  271.87    3.94   0
  -1  -2  -5  274.31    5.21   0
  -2  -2  -5  207.87    4.59   0
  -2  -2  -5  194.72    4.09   0
  -2   2  -5  185.25    4.36   0
  -2   2  -5  199.83    3.45   0
   2  -2   5  192.01    3.26   0
   2   2   5  188.70    4.25   0
   2  -2   5  196.45    4.40   0
   2   2   5  176.05    3.92   0
  -3  -2  -5 1104.93    8.79   0
  -3   2  -5 1065.59    9.71   0
   3  -2   5 1081.24    6.81   0
  -3  -2  -5 1159.33    8.80   0
   3  -2   5 1108.08    9.85   0
  -3   2  -5 1178.02    7.15   0
   3   2   5 1004.53    8.32   0
   3   2   5 1057.74    8.30   0
  -4  -2  -5  264.03    4.48   0
   4  -2   5  243.79    6.06   0
  -4   2  -5  270.74    3.97   0
  -4  -2  -5  244.97    4.87   0
   4   2   5  228.50    4.64   0
   4  -2   5  245.71    3.80   0
   4   2   5  237.75    4.27   0
   5   2   5  736.07    8.12   0
   5  -2   5  770.44   18.92   0
  -5   2  -5  801.57    5.38   0
   5  -2   5  679.10   18.19   0
  -5  -2  -5  800.97    8.61   0
  -5  -2  -5  827.11    6.76   0
   5  -2   5  784.62    5.62   0
   5   2   5  776.39    6.60   0
  -6  -2  -5  518.53    8.41   0
   6   2   5  502.05    5.49   0
   6   2   5  478.62    8.02   0
  -6  -2  -5  545.05    5.56   0
  -6   2  -5  521.43    4.52   0
   6  -2   5  506.37    4.85   0
   7   2   5   42.61    3.12   0
  -7   2  -5   45.26    2.35   0
  -7  -2  -5   48.06    3.15   0
  -7  -2  -5   40.60    6.37   0
   7  -2   5   42.09    2.30   0
  -7  -2  -5   41.74    6.54   0
   8  -2   5    4.10    2.92   0
   8   2   5    4.41    3.02   0
  -8   2  -5    5.19    2.15   0
  -8  -2  -5    5.35    2.97   0
   9  -2   5   88.76    2.74   0
  -9   2  -5   94.69    2.80   0
  -9  -2  -5   96.49    3.72   0
  10  -2   5   75.14    3.50   0
 -10  -2  -5   84.96    3.77   0
 -10   2  -5   82.55    3.65   0
 -14  -3   5  221.88    5.85   0
 -14  -3   5  223.46    6.25   0
 -14   3   5  229.37    6.64   0
 -14  -3   5  251.17    4.46   0
 -13  -3   5  372.08    4.75   0
 -13  -3   5  367.20    5.42   0
 -13   3   5  354.82    6.05   0
 -13  -3   5  389.01    5.74   0
 -13   3   5  379.07    4.57   0
 -12  -3   5  489.67    4.39   0
 -12  -3   5  480.77    5.63   0
  12  -3  -5  469.97    6.07   0
 -12  -3   5  529.93    5.97   0
 -12   3   5  478.71    6.26   0
 -12   3   5  522.04    4.84   0
 -11  -3   5  476.02    4.29   0
  11  -3  -5  467.74    5.72   0
 -11  -3   5  492.36    5.08   0
 -11   3   5  493.56    4.71   0
 -11   3   5  446.23    5.77   0
 -10  -3   5  375.11    4.89   0
 -10   3   5  341.12    5.03   0
 -10  -3   5  348.33    3.76   0
  10  -3  -5  346.64    4.89   0
 -10   3   5  363.76    4.20   0
  -9   3   5    7.03    1.93   0
  -9   3   5    6.16    3.03   0
  -9  -3   5    7.47    1.94   0
   9  -3  -5    6.18    2.79   0
  -8   3   5   93.71    3.02   0
  -8   3   5   93.92    3.36   0
   8  -3  -5   90.68    3.24   0
  -8  -3   5   96.41    3.21   0
  -7   3   5  103.05    2.74   0
  -7  -3   5  112.97    2.69   0
  -7   3   5  103.93    2.55   0
   7  -3  -5  109.95    3.23   0
   6   3  -5   55.53    2.26   0
  -6   3   5   55.70    2.27   0
  -6   3   5   58.71    3.01   0
  -6  -3   5   55.98    2.29   0
   6  -3  -5   58.20    2.33   0
  -5   3   5  800.74    6.08   0
  -5   3   5  803.75    6.49   0
   5   3  -5  797.46    6.01   0
   5  -3  -5  833.97    6.45   0
  -5  -3   5  793.90    5.78   0
  -4   3   5 2107.40    9.75   0
   4  -3  -5 2190.76    9.72   0
  -4  -3   5 2067.38    9.73   0
   4   3  -5 2093.67    9.23   0
  -4  -3   5 2236.49    9.75   0
  -3   3   5 1589.81    8.67   0
   3   3  -5 1599.22    8.40   0
  -3  -3   5 1557.56    8.63   0
  -3  -3   5 1640.96    8.52   0
   3  -3  -5 1666.41    8.81   0
  -2   3   5 2156.02    9.96   0
   2   3  -5 2194.20    9.89   0
  -2  -3   5 2322.98   10.40   0
   2   3  -5 2252.48   10.44   0
  -2  -3   5 2370.11   10.66   0
   2  -3  -5 2257.59   10.12   0
  -1   3   5 2956.74   11.68   0
   1   3  -5 3131.46   12.30   0
   1   3  -5 3038.77   11.78   0
  -1  -3   5 3163.38   12.00   0
   1  -3  -5 3092.22   12.04   0
  -1  -3   5 3094.66   12.15   0
  -1   3   5 3018.02   15.71   0
   0   3  -5 1535.09    9.19   0
   0   3  -5 1579.08    8.43   0
   0   3   5 1585.50   12.40   0
   0  -3  -5 1502.89    8.73   0
   0  -3   5 1601.28    8.51   0
   0  -3   5 1593.09    9.39   0
   0   3   5 1479.02    8.74   0
  -1  -3  -5  782.10    8.98   0
  -1   3  -5  780.18    7.00   0
  -1  -3  -5  776.70    6.44   0
   1  -3   5  792.13    6.78   0
  -1   3  -5  847.96    6.34   0
   1   3   5  741.39    6.46   0
   1  -3   5  833.39    6.23   0
   1   3   5  800.79    8.88   0
   2  -3   5 1039.17    8.39   0
  -2  -3  -5 1058.48    9.90   0
  -2   3  -5 1072.15    6.84   0
   2  -3   5  976.63    6.21   0
  -2  -3  -5 1022.73    7.73   0
   2   3   5  924.81    7.00   0
   2   3   5 1001.61    9.39   0
  -3  -3  -5  786.81    7.16   0
   3  -3   5  745.85    5.34   0
  -3   3  -5  861.71    6.06   0
   3   3   5  729.58    6.81   0
   3   3   5  768.35    7.82   0
  -3  -3  -5  854.66    8.32   0
   3  -3   5  810.95    8.20   0
  -4  -3  -5  190.73    4.28   0
   4  -3   5  179.27    4.84   0
   4   3   5  180.03    4.03   0
   4  -3   5  189.47    4.94   0
  -4   3  -5  194.07    3.08   0
  -4  -3  -5  200.73    4.36   0
   4  -3   5  191.85    3.47   0
   4   3   5  186.88    4.18   0
   5   3   5    6.15    2.61   0
   5  -3   5    4.03    4.24   0
   5  -3   5    4.40    1.85   0
   5   3   5    4.68    2.64   0
  -5  -3  -5    3.89    2.66   0
   5  -3   5    4.67    3.85   0
  -5  -3  -5    8.64    2.73   0
  -5   3  -5    4.06    1.95   0
   6   3   5  189.02    4.25   0
   6   3   5  177.91    4.63   0
  -6  -3  -5  193.23    5.26   0
  -6  -3  -5  195.70    4.19   0
  -6   3  -5  204.52    3.67   0
   6  -3   5  181.95    3.01   0
   7   3   5  151.32    3.87   0
  -7  -3  -5  154.06    3.92   0
  -7   3  -5  162.11    3.61   0
  -7  -3  -5  158.70    5.66   0
   7  -3   5  157.67    3.49   0
   8  -3   5   50.60    3.09   0
  -8   3  -5   51.54    3.21   0
  -8  -3  -5   49.94    3.35   0
   9  -3   5  267.63    3.57   0
  -9  -3  -5  285.27    4.80   0
  -9   3  -5  292.03    4.27   0
  10  -3   5  313.35    4.49   0
 -10  -3  -5  338.89    5.02   0
 -10   3  -5  309.54    3.98   0
 -13  -4   5   21.72    3.34   0
 -13  -4   5   23.12    2.50   0
 -13   4   5   24.44    4.43   0
 -13  -4   5   28.30    3.56   0
  13  -4  -5   21.77    4.05   0
 -13   4   5   21.78    3.38   0
 -12  -4   5   77.80    3.55   0
 -12  -4   5   68.52    3.47   0
 -12   4   5   69.64    3.76   0
  12  -4  -5   71.44    3.66   0
 -12   4   5   68.50    2.60   0
 -12  -4   5   80.83    3.64   0
  11  -4  -5  194.34    4.30   0
 -11  -4   5  213.74    4.22   0
 -11   4   5  189.08    4.46   0
 -11  -4   5  187.03    3.39   0
 -11  -4   5  200.31    3.94   0
 -11   4   5  194.72    3.12   0
 -10  -4   5  571.68    4.62   0
 -10  -4   5  630.35    5.70   0
  10  -4  -5  575.32    5.85   0
 -10   4   5  557.20    5.96   0
 -10   4   5  567.00    4.36   0
  -9  -4   5  193.94    3.84   0
   9  -4  -5  179.27    3.44   0
  -9   4   5  178.74    4.23   0
  -9   4   5  179.19    3.51   0
  -8   4   5   22.67    2.67   0
  -8   4   5   20.08    2.73   0
   8  -4  -5   20.14    2.07   0
  -8  -4   5   24.17    2.71   0
  -7   4   5  320.88    3.60   0
  -7   4   5  323.26    4.45   0
  -7  -4   5  337.45    3.82   0
   7  -4  -5  322.11    4.01   0
  -6   4   5  341.99    3.86   0
  -6   4   5  336.05    4.48   0
  -6  -4   5  353.79    4.37   0
  -6  -4   5  327.09    4.05   0
   6  -4  -5  346.00    4.10   0
  -5  -4   5   15.11    1.89   0
  -5   4   5   13.85    2.64   0
  -5   4   5   13.98    2.65   0
   5  -4  -5   13.71    2.00   0
  -5  -4   5   17.09    2.78   0
  -4   4   5  109.64    3.27   0
   4  -4  -5  110.89    2.72   0
  -4  -4   5  109.78    2.62   0
  -4   4   5  111.89    3.49   0
  -4  -4   5  112.76    2.91   0
  -3   4   5   47.56    2.33   0
  -3  -4   5   49.94    2.19   0
   3  -4  -5   51.60    2.21   0
  -3  -4   5   52.23    3.02   0
   3   4  -5   51.39    3.08   0
  -2  -4   5  621.84    5.53   0
   2  -4  -5  613.96    5.56   0
  -2  -4   5  656.82    5.93   0
   2   4  -5  594.13    5.67   0
  -2   4   5  588.27    5.49   0
  -1  -4   5   11.69    1.96   0
   1   4  -5   11.61    1.97   0
   1  -4  -5   12.14    2.61   0
  -1  -4   5   15.02    1.95   0
  -1   4   5   11.25    1.94   0
   0  -4   5    5.67    2.59   0
   0   4   5    7.09    2.83   0
   0  -4  -5    9.13    2.55   0
   0   4  -5    6.90    2.60   0
   0  -4   5    8.64    2.51   0
   0   4   5    6.37    1.83   0
  -1   4  -5  219.14    3.83   0
  -1  -4  -5  200.16    3.99   0
   1   4   5  205.63    5.57   0
   1  -4   5  206.78    3.22   0
   1   4   5  192.05    3.81   0
   1  -4   5  201.54    3.66   0
  -2  -4  -5  948.70   11.13   0
  -2  -4  -5  890.16    6.61   0
  -2   4  -5 1013.19    6.45   0
   2  -4   5  947.73    7.74   0
   2   4   5  850.42    6.43   0
   2  -4   5  905.18    5.82   0
   2   4   5  925.83   10.69   0
   3  -4   5  495.57    6.21   0
  -3  -4  -5  496.99    5.56   0
   3  -4   5  491.20    4.36   0
   3   4   5  476.18    5.39   0
   3  -4   5  512.38    6.27   0
  -3   4  -5  539.97    4.99   0
  -3  -4  -5  550.97    7.96   0
   3   4   5  504.44    7.55   0
   4  -4   5   92.39    3.66   0
   4   4   5   92.60    4.01   0
  -4  -4  -5  100.10    4.14   0
  -4  -4  -5   85.79    2.84   0
   4  -4   5   89.48    3.62   0
   4  -4   5   87.78    2.46   0
  -4   4  -5   97.30    2.54   0
   4   4   5   86.00    3.22   0
   5   4   5  133.57    3.77   0
  -5  -4  -5  143.83    3.91   0
  -5  -4  -5  157.34    4.15   0
  -5   4  -5  149.22    2.77   0
   5  -4   5  137.88    5.34   0
   5  -4   5  145.09    5.83   0
   5   4   5  140.94    4.01   0
   5  -4   5  138.02    2.68   0
   6   4   5  523.93    6.40   0
   6   4   5  559.75    6.40   0
  -6  -4  -5  546.82    6.59   0
  -6  -4  -5  586.35    6.37   0
  -6   4  -5  557.72    4.48   0
   6  -4   5  541.83    4.38   0
  -7  -4  -5   31.43    3.99   0
  -7  -4  -5   30.56    3.12   0
  -7   4  -5   33.10    3.03   0
   7  -4   5   27.86    2.22   0
  -8  -4  -5    9.41    3.08   0
  -8   4  -5    6.94    2.24   0
  -8  -4  -5    8.67    3.88   0
   8  -4   5   10.30    2.16   0
   9  -4   5    1.34    3.19   0
  -9  -4  -5    2.84    3.14   0
  -9   4  -5    0.08    2.34   0
 -10  -4  -5   -0.42    2.33   0
  10  -4   5    1.10    2.38   0
 -10   4  -5   -1.00    3.41   0
 -13   5   5  368.44    6.26   0
  13  -5  -5  367.77    6.66   0
 -13   5   5  390.18    4.78   0
 -13  -5   5  384.99    5.11   0
 -13  -5   5  382.92    4.41   0
 -13  -5   5  399.68    5.53   0
 -12  -5   5  564.96    5.95   0
  12  -5  -5  498.41    6.26   0
 -12   5   5  517.56    6.44   0
 -12  -5   5  520.47    5.68   0
 -12  -5   5  522.30    4.67   0
 -12   5   5  515.75    4.39   0
 -11  -5   5  713.02    5.74   0
 -11  -5   5  676.21    5.89   0
 -11  -5   5  727.17    6.22   0
  11  -5  -5  694.91    6.62   0
 -11   5   5  675.90    6.69   0
 -11   5   5  717.04    5.23   0
 -10  -5   5  857.47    6.34   0
  10  -5  -5  793.30    6.63   0
 -10  -5   5  795.52    5.45   0
 -10  -5   5  790.91    6.08   0
 -10   5   5  774.62    6.71   0
 -10   5   5  786.74    5.03   0
   9  -5  -5  393.06    4.93   0
  -9  -5   5  401.77    4.63   0
  -9  -5   5  362.22    4.00   0
  -9   5   5  372.55    4.95   0
  -9   5   5  392.84    4.31   0
  -8  -5   5   96.05    3.14   0
   8  -5  -5   93.19    2.66   0
  -8   5   5   86.60    2.61   0
  -8   5   5   89.75    2.39   0
  -7   5   5   57.22    2.91   0
  -7  -5   5   57.73    3.00   0
  -7   5   5   64.05    3.02   0
  -7  -5   5   58.40    2.41   0
   7  -5  -5   56.54    2.34   0
  -6   5   5  650.46    4.97   0
  -6  -5   5  665.73    5.69   0
  -6  -5   5  685.06    5.52   0
  -6   5   5  630.15    5.17   0
   6  -5  -5  639.47    5.17   0
  -5   5   5 1634.42    7.99   0
   5  -5  -5 1646.22    8.09   0
  -5  -5   5 1737.59    8.74   0
  -5   5   5 1568.28    7.89   0
  -5  -5   5 1691.38    7.84   0
  -4   5   5 1297.76    7.95   0
   4  -5  -5 1301.51    7.41   0
  -4  -5   5 1267.62    6.90   0
  -4  -5   5 1293.58    7.72   0
  -4   5   5 1265.58    7.39   0
  -3   5   5 1505.17    9.13   0
   3  -5  -5 1505.64    7.87   0
   3   5  -5 1414.72    8.14   0
  -3  -5   5 1510.05    7.72   0
  -3  -5   5 1502.50    8.02   0
  -3   5   5 1411.27    7.50   0
  -2   5   5 2609.33   13.10   0
  -2  -5   5 2631.85   10.56   0
   2   5  -5 2471.56   10.10   0
   2  -5  -5 2490.34    9.83   0
  -2  -5   5 2526.85    9.95   0
  -2   5   5 2513.61   10.09   0
  -1   5   5 2060.30   13.47   0
   1  -5  -5 2180.67    9.43   0
   1   5  -5 2148.80    9.37   0
  -1  -5   5 2250.62    9.45   0
  -1  -5   5 2158.37    9.45   0
  -1   5   5 2103.48    9.31   0
   0  -5  -5  363.26    4.49   0
   0  -5   5  347.50    3.92   0
   0   5  -5  373.07    4.50   0
   0   5   5  358.45    7.64   0
   0  -5   5  347.31    4.26   0
   0   5   5  333.74    4.32   0
   1  -5   5  208.40    3.54   0
  -1  -5  -5  209.77    3.83   0
  -1   5  -5  227.36    3.76   0
   1  -5   5  217.41    3.17   0
   1   5   5  214.65    7.53   0
   1   5   5  203.25    3.76   0
   2   5   5  863.30   15.38   0
  -2  -5  -5  808.90    6.00   0
   2  -5   5  856.76    7.13   0
   2  -5   5  876.29    7.14   0
  -2   5  -5  933.80    6.10   0
   2   5   5  789.10    5.91   0
   2  -5   5  863.12    5.51   0
   3   5   5  252.58    7.32   0
   3  -5   5  233.00    4.53   0
   3  -5   5  234.75    3.24   0
   3   5   5  230.46    4.07   0
  -3   5  -5  250.29    3.36   0
  -3  -5  -5  250.69    7.31   0
   3  -5   5  244.95    4.45   0
  -3  -5  -5  238.38    4.20   0
  -4  -5  -5  117.43    3.50   0
  -4  -5  -5  128.46    5.01   0
   4  -5   5  117.70    3.16   0
  -4   5  -5  123.48    2.67   0
   4  -5   5  117.27    3.76   0
   4   5   5  111.37    3.39   0
   4  -5   5  117.82    3.87   0
   5  -5   5  629.59    8.40   0
  -5  -5  -5  609.37    6.21   0
   5  -5   5  627.50    4.97   0
   5   5   5  579.11    6.05   0
   5  -5   5  604.93    8.29   0
  -5  -5  -5  661.41    7.79   0
  -5   5  -5  657.66    5.15   0
   6  -5   5  207.20   11.08   0
  -6  -5  -5  231.81    4.55   0
   6   5   5  222.67    4.47   0
  -6  -5  -5  250.14    4.92   0
  -6   5  -5  248.40    3.29   0
   6  -5   5  228.87    3.17   0
   7   5   5  621.45    6.93   0
  -7  -5  -5  719.57    7.25   0
  -7   5  -5  697.22    4.78   0
  -7  -5  -5  685.01    7.27   0
   7  -5   5  651.55    4.63   0
   8  -5   5  317.16    3.69   0
  -8  -5  -5  338.50    5.35   0
  -8   5  -5  338.61    3.76   0
  -8  -5  -5  330.58    6.05   0
   9  -5   5  510.00    4.91   0
  -9   5  -5  493.58    4.38   0
  -9  -5  -5  510.63    6.30   0
  -9  -5  -5  487.04    9.11   0
  -9  -5  -5  514.38    9.51   0
  10  -5   5  364.57    4.71   0
 -10  -5  -5  392.73    5.70   0
 -10   5  -5  386.88    4.88   0
 -13  -6   5    2.77    2.46   0
 -13  -6   5    2.77    3.43   0
 -13  -6   5    1.62    3.33   0
 -13   6   5    1.61    3.49   0
  13  -6  -5    2.35    4.12   0
 -13   6   5    2.58    2.25   0
 -12  -6   5   16.05    3.25   0
 -12  -6   5   10.41    3.23   0
 -12  -6   5   13.55    3.17   0
 -12   6   5   11.61    4.03   0
  12  -6  -5   11.11    3.26   0
 -12   6   5   15.17    3.19   0
 -11  -6   5   31.88    3.24   0
 -11  -6   5   27.74    3.14   0
  11  -6  -5   27.53    3.30   0
 -11   6   5   27.55    3.33   0
 -11  -6   5   29.91    2.38   0
 -11   6   5   34.28    2.33   0
  10  -6  -5   61.26    3.34   0
 -10  -6   5   61.77    3.15   0
 -10  -6   5   57.11    3.30   0
 -10   6   5   58.84    3.38   0
 -10   6   5   56.47    2.44   0
  -9  -6   5  322.85    3.94   0
  -9  -6   5  329.25    4.29   0
  -9  -6   5  339.27    3.89   0
  -9   6   5  319.84    4.64   0
   9  -6  -5  351.51    4.72   0
  -9   6   5  329.84    4.13   0
  -8  -6   5    8.16    2.81   0
  -8  -6   5    9.77    2.72   0
  -8  -6   5    7.81    2.05   0
   8  -6  -5    8.28    2.69   0
  -8   6   5    6.57    2.91   0
  -8   6   5    8.85    2.77   0
  -7  -6   5  285.02    4.23   0
  -7  -6   5  276.13    3.96   0
   7  -6  -5  279.98    4.12   0
  -7   6   5  255.49    3.57   0
  -7   6   5  281.94    3.98   0
   6  -6  -5    2.49    2.47   0
  -6  -6   5    1.10    2.60   0
  -6  -6   5    2.69    2.53   0
  -6   6   5    0.98    2.47   0
  -6   6   5    1.80    2.62   0
  -5   6   5   53.46    2.27   0
  -5  -6   5   56.65    3.04   0
   5  -6  -5   53.91    2.93   0
  -5  -6   5   53.64    2.24   0
  -5   6   5   52.91    2.82   0
  -4   6   5  335.62    4.58   0
  -4  -6   5  324.50    3.70   0
   4  -6  -5  316.21    3.78   0
  -4   6   5  312.44    3.77   0
  -4  -6   5  343.09    4.53   0
   3  -6  -5    0.64    1.62   0
  -3  -6   5    2.71    2.35   0
   3   6  -5    1.83    1.82   0
  -3   6   5    1.28    2.37   0
  -3   6   5    1.47    1.78   0
  -3  -6   5    1.19    2.58   0
  -2   6   5  443.87    5.83   0
   2  -6  -5  431.76    4.21   0
  -2  -6   5  438.97    4.23   0
   2   6  -5  429.86    4.46   0
  -2  -6   5  471.34    4.93   0
  -2   6   5  434.78    4.57   0
  -1   6   5    2.35    2.63   0
   1  -6  -5    1.25    2.38   0
   1   6  -5    3.65    1.79   0
  -1  -6   5    3.41    2.43   0
  -1  -6   5    2.51    2.45   0
  -1   6   5    2.84    2.34   0
   0   6   5  242.31    6.71   0
   0  -6  -5  252.30    3.90   0
   0   6   5  221.47    3.30   0
   0  -6   5  243.96    3.97   0
   0  -6   5  236.76    3.51   0
   0  -6   5  250.20    3.78   0
   0   6  -5  245.43    3.45   0
   0   6   5  238.97    6.85   0
  -1  -6  -5 1403.46    7.65   0
   1  -6   5 1393.19    8.07   0
   1  -6   5 1309.03    7.64   0
  -1   6  -5 1504.98    7.49   0
   1   6   5 1341.26    7.42   0
   1  -6   5 1461.20    7.30   0
   2  -6   5   32.09    2.16   0
  -2   6  -5   34.58    2.12   0
   2   6   5   29.80    2.63   0
   2  -6   5   30.76    2.02   0
   2  -6   5   35.01    2.74   0
  -2  -6  -5   32.59    2.06   0
  -3  -6  -5  152.68    3.52   0
   3  -6   5  150.16    3.71   0
   3  -6   5  154.45    3.82   0
   3   6   5  146.21    3.48   0
  -3   6  -5  161.16    2.89   0
   3  -6   5  160.10    3.40   0
  -4  -6  -5   55.62    3.00   0
  -4  -6  -5   59.73    6.44   0
  -4   6  -5   61.46    2.18   0
   4   6   5   54.13    2.92   0
   4  -6   5   58.87    2.16   0
   4  -6   5   58.93    3.25   0
   4  -6   5   58.43    3.18   0
   5  -6   5   64.46    3.94   0
  -5  -6  -5   62.30    3.38   0
   5   6   5   61.22    3.10   0
   5  -6   5   65.15    3.42   0
  -5   6  -5   75.05    3.13   0
   5  -6   5   67.41    2.94   0
  -5  -6  -5   72.74    5.07   0
  -6  -6  -5   38.79    3.10   0
   6   6   5   36.35    3.16   0
  -6  -6  -5   44.06    4.03   0
  -6   6  -5   40.63    2.37   0
   6  -6   5   40.13    2.96   0
   6  -6   5   38.50    4.64   0
   6  -6   5   41.25    4.58   0
  -7  -6  -5  120.98    4.67   0
  -7  -6  -5  108.67    3.85   0
   7  -6   5  116.67    3.43   0
  -7   6  -5  108.99    2.65   0
   7   6   5   99.85    3.87   0
  -8  -6  -5   67.27    3.80   0
  -8  -6  -5   70.09    3.79   0
  -8   6  -5   71.88    3.31   0
   8  -6   5   66.50    2.42   0
  -9  -6  -5   97.64    4.93   0
  -9  -6  -5  105.63    5.17   0
  -9  -6  -5  111.42    4.30   0
  -9   6  -5  106.43    3.75   0
   9  -6   5  108.79    3.60   0
  10  -6   5   42.84    3.53   0
 -10  -6  -5   40.03    3.85   0
 -10   6  -5   39.02    2.68   0
 -10  -6  -5   41.36    5.74   0
 -10  -6  -5   36.79    5.58   0
 -13  -7   5  184.32    3.71   0
 -13  -7   5  185.48    4.47   0
  13  -7  -5  174.03    4.93   0
 -13  -7   5  183.82    4.63   0
 -13   7   5  184.90    5.12   0
 -13  -7   5  197.51    4.54   0
 -13   7   5  171.18    3.28   0
 -12  -7   5  207.46    4.36   0
 -12  -7   5  200.00    4.31   0
 -12  -7   5  198.26    4.21   0
 -12   7   5  186.79    5.23   0
 -12  -7   5  204.43    4.36   0
  12  -7  -5  184.22    4.58   0
 -12   7   5  186.43    3.24   0
 -11  -7   5   90.08    2.84   0
  11  -7  -5   95.67    3.67   0
 -11  -7   5   93.74    3.50   0
 -11  -7   5   92.54    3.74   0
 -11  -7   5   91.85    2.85   0
 -11   7   5   89.15    3.71   0
 -11   7   5   90.19    2.59   0
 -10  -7   5  147.65    3.19   0
 -10  -7   5  144.25    3.00   0
 -10   7   5  146.49    3.87   0
 -10  -7   5  155.25    3.74   0
 -10   7   5  147.66    2.94   0
  10  -7  -5  157.54    3.94   0
  -9  -7   5   86.63    3.33   0
  -9  -7   5   84.78    3.18   0
  -9   7   5   83.87    2.53   0
  -9   7   5   78.59    2.61   0
  -9  -7   5   82.72    3.42   0
   9  -7  -5   85.50    3.42   0
  -8  -7   5  157.02    2.88   0
  -8  -7   5  147.76    2.84   0
  -8  -7   5  162.06    3.77   0
   8  -7  -5  159.24    3.65   0
  -8   7   5  148.32    3.01   0
  -8   7   5  155.47    2.81   0
  -7  -7   5    3.04    1.84   0
  -7   7   5    2.63    2.74   0
   7  -7  -5    5.48    2.61   0
  -7  -7   5    4.89    1.83   0
  -7  -7   5    4.81    2.83   0
  -7   7   5    3.28    2.66   0
  -6  -7   5   24.46    2.10   0
  -6   7   5   20.66    1.91   0
  -6  -7   5   22.59    2.61   0
   6  -7  -5   22.17    1.92   0
  -6  -7   5   24.12    1.97   0
  -6   7   5   21.99    2.81   0
  -5  -7   5   50.41    2.16   0
  -5  -7   5   52.76    2.78   0
   5  -7  -5   54.26    2.83   0
  -5  -7   5   54.59    2.33   0
  -5   7   5   50.38    2.14   0
  -5   7   5   51.11    2.86   0
  -4  -7   5    1.75    1.67   0
   4  -7  -5    2.54    2.54   0
  -4  -7   5    2.22    2.59   0
  -4  -7   5    2.48    1.76   0
  -4   7   5    2.78    2.52   0
  -4   7   5    1.39    2.53   0
   3  -7  -5   27.54    1.93   0
  -3  -7   5   25.94    1.91   0
   3   7  -5   25.42    2.06   0
  -3  -7   5   29.04    2.06   0
  -3   7   5   26.51    2.00   0
  -3  -7   5   25.05    2.58   0
  -3   7   5   26.63    2.76   0
  -2  -7   5   17.95    2.52   0
   2  -7  -5   16.75    1.84   0
  -2  -7   5   17.12    1.83   0
  -2  -7   5   17.77    2.01   0
  -2   7   5   18.28    1.83   0
   2   7  -5   16.87    2.03   0
  -2   7   5   18.86    2.72   0
   1  -7  -5  271.82    3.86   0
  -1  -7   5  269.44    3.46   0
  -1  -7   5  270.71    3.90   0
  -1   7   5  260.99    3.77   0
   1   7  -5  283.96    4.08   0
  -1  -7   5  288.00    4.00   0
  -1   7   5  268.39    5.34   0
   0   7   5  521.83    9.85   0
   0  -7  -5  516.70    4.50   0
   0  -7   5  549.49    5.12   0
   0  -7   5  532.81    4.52   0
   0  -7   5  505.32    4.64   0
   0   7  -5  551.88    4.68   0
   0   7   5  497.34    4.39   0
   0   7   5  514.40    9.44   0
  -1  -7  -5    3.86    1.85   0
   1  -7   5    2.11    2.45   0
  -1   7  -5    2.55    1.87   0
   1   7   5    1.50    2.48   0
   1  -7   5    4.15    2.55   0
   1  -7   5    6.56    2.47   0
  -2  -7  -5   37.41    2.78   0
   2   7   5   31.46    2.01   0
  -2   7  -5   35.55    2.04   0
   2  -7   5   36.18    2.09   0
   2  -7   5   36.02    2.88   0
   2  -7   5   35.88    2.01   0
  -3  -7  -5   13.96    2.70   0
   3   7   5   11.88    2.66   0
  -3   7  -5   13.62    1.91   0
   3  -7   5   13.68    2.58   0
   3  -7   5   14.39    2.62   0
   3  -7   5   13.12    2.69   0
   4  -7   5   37.86    2.90   0
  -4  -7  -5   39.26    2.93   0
   4  -7   5   39.75    3.10   0
  -4   7  -5   38.51    2.22   0
   4   7   5   39.08    2.87   0
   4  -7   5   37.73    2.09   0
   5   7   5    0.46    2.73   0
   5  -7   5    0.72    2.76   0
  -5   7  -5    1.62    2.75   0
  -5  -7  -5    1.24    1.95   0
   5  -7   5    1.67    2.63   0
   5  -7   5    3.19    2.66   0
  -6  -7  -5   14.26    2.97   0
   6   7   5   14.54    2.17   0
   6  -7   5   14.18    3.02   0
  -6   7  -5   15.00    2.06   0
   6  -7   5   13.34    3.67   0
  -6  -7  -5   15.29    5.02   0
   6  -7   5   19.52    2.81   0
   7   7   5    7.85    3.09   0
  -7  -7  -5    6.56    3.80   0
   7  -7   5    5.34    2.07   0
  -7   7  -5    7.08    2.15   0
  -7  -7  -5    7.47    3.01   0
  -8  -7  -5   88.41    3.94   0
  -8  -7  -5   94.61    4.95   0
  -8   7  -5   93.04    3.49   0
   8  -7   5   90.26    3.27   0
   9  -7   5   52.16    2.55   0
  -9  -7  -5   55.05    4.64   0
  -9  -7  -5   52.75    3.92   0
  -9   7  -5   58.73    3.47   0
 -12   8   5    3.78    3.29   0
 -12  -8   5    2.79    3.29   0
 -12  -8   5    7.18    3.35   0
 -12  -8   5    4.68    3.41   0
  12  -8  -5    3.19    3.25   0
 -12  -8   5    3.95    2.31   0
 -12   8   5    4.11    2.32   0
 -11   8   5   -0.04    2.25   0
  11  -8  -5    2.05    3.13   0
 -11  -8   5   -0.78    3.02   0
 -11  -8   5   -0.06    3.18   0
 -11  -8   5   -0.86    3.14   0
 -11   8   5    2.19    3.11   0
 -11  -8   5    3.57    3.26   0
 -10  -8   5  191.12    3.85   0
 -10  -8   5  187.19    4.10   0
 -10  -8   5  183.53    3.77   0
 -10   8   5  174.36    4.04   0
  10  -8  -5  189.44    4.11   0
 -10   8   5  174.79    3.80   0
  -9  -8   5   89.84    2.60   0
  -9  -8   5   86.86    2.51   0
  -9   8   5   85.98    2.73   0
  -9  -8   5   92.08    3.50   0
   9  -8  -5   97.43    3.44   0
  -9   8   5   89.98    2.62   0
  -8   8   5  263.82    3.35   0
  -8  -8   5  278.04    3.94   0
  -8  -8   5  273.38    3.93   0
   8  -8  -5  284.96    4.30   0
  -8   8   5  251.66    3.61   0
  -8  -8   5  265.19    3.71   0
  -7  -8   5  366.62    3.73   0
  -7  -8   5  377.16    4.16   0
  -7   8   5  365.64    4.53   0
   7  -8  -5  384.43    4.16   0
  -7   8   5  376.54    4.38   0
  -7  -8   5  388.33    4.25   0
  -6  -8   5  181.51    3.48   0
  -6  -8   5  182.79    3.51   0
   6  -8  -5  173.63    3.03   0
  -6  -8   5  184.76    3.76   0
  -6   8   5  168.49    2.95   0
  -6   8   5  169.64    2.99   0
  -5  -8   5  306.26    4.29   0
  -5  -8   5  273.11    3.35   0
   5  -8  -5  292.41    4.01   0
  -5  -8   5  278.62    3.36   0
  -5   8   5  260.41    3.43   0
  -5   8   5  286.03    4.10   0
  -4  -8   5   12.16    2.49   0
   4  -8  -5   14.22    2.59   0
  -4  -8   5   14.00    2.53   0
   4   8  -5   11.30    2.78   0
  -4  -8   5   13.84    1.95   0
  -4   8   5   14.63    2.61   0
  -4   8   5   11.29    2.67   0
   3  -8  -5  125.92    3.15   0
  -3  -8   5  117.26    2.52   0
   3   8  -5  119.85    2.80   0
  -3  -8   5  138.07    3.37   0
  -3   8   5  117.50    2.57   0
  -3  -8   5  125.78    2.56   0
  -3   8   5  117.54    3.00   0
   2  -8  -5    3.42    2.38   0
  -2  -8   5    0.24    1.73   0
   2   8  -5    0.85    1.92   0
  -2   8   5    0.25    2.37   0
  -2  -8   5    1.71    1.75   0
  -2  -8   5    1.07    2.63   0
  -2   8   5    3.66    2.51   0
   1  -8  -5   20.20    2.51   0
  -1  -8   5   12.55    1.97   0
  -1  -8   5   11.76    2.66   0
  -1  -8   5   12.11    2.60   0
   1   8  -5   15.98    2.08   0
  -1   8   5   11.26    1.88   0
  -1   8   5   11.89    3.19   0
   0  -8   5    2.48    1.70   0
   0   8   5    0.82    1.77   0
   0   8  -5    1.32    1.88   0
   0  -8   5    0.89    2.59   0
   0   8   5    3.11    3.14   0
   0  -8   5    1.92    1.81   0
   0  -8  -5    0.97    1.79   0
   1  -8   5   26.36    2.71   0
   1   8   5   25.08    2.65   0
  -1   8  -5   25.99    2.88   0
   1  -8   5   24.27    2.06   0
   1  -8   5   25.87    2.75   0
  -1  -8  -5   27.98    2.00   0
   2  -8   5   98.37    3.23   0
  -2   8  -5  105.60    3.12   0
   2  -8   5  100.59    3.16   0
   2   8   5   99.43    3.08   0
   2  -8   5  103.59    3.05   0
  -2  -8  -5  101.35    3.19   0
   3  -8   5  663.65    5.99   0
   3   8   5  595.07    4.73   0
  -3   8  -5  683.30    4.74   0
   3  -8   5  651.94    4.57   0
   3  -8   5  656.86    5.91   0
  -3  -8  -5  680.21    5.41   0
   4  -8   5  177.07    4.08   0
   4   8   5  168.35    3.63   0
   4  -8   5  183.19    3.43   0
  -4   8  -5  186.18    2.93   0
   4  -8   5  179.46    4.07   0
  -4  -8  -5  174.75    3.65   0
   5  -8   5  152.64    4.06   0
   5   8   5  145.90    3.71   0
  -5   8  -5  160.52    2.82   0
  -5  -8  -5  150.10    3.03   0
   5  -8   5  159.15    4.16   0
   5  -8   5  164.60    3.42   0
  -6  -8  -5  289.15    3.88   0
   6   8   5  272.66    4.45   0
   6  -8   5  312.66    4.05   0
  -6   8  -5  292.11    3.39   0
   6  -8   5  287.60    5.35   0
   6  -8   5  299.90    5.86   0
   7  -8   5  111.29    5.81   0
  -7  -8  -5  112.73    3.03   0
   7  -8   5  118.50    5.43   0
   7   8   5  108.76    3.75   0
  -7   8  -5  129.82    3.63   0
   7  -8   5  122.65    2.68   0
  -8  -8  -5   41.67    3.45   0
  -8   8  -5   41.25    2.51   0
  -8  -8  -5   39.43    7.67   0
  -8  -8  -5   43.67    7.65   0
   8  -8   5   41.44    3.24   0
   9  -8   5  101.26    3.61   0
  -9   8  -5   87.49    2.93   0
  -9  -8  -5   97.30    4.09   0
  -9  -8  -5   91.41    6.65   0
  -9  -8  -5  102.16    6.52   0
 -12  -9   5   10.91    2.53   0
 -12  -9   5   13.04    3.54   0
  12  -9  -5    9.51    2.41   0
 -12  -9   5   12.05    3.47   0
 -12   9   5   11.29    3.39   0
 -12   9   5   10.84    3.44   0
 -12  -9   5   12.69    3.33   0
 -11  -9   5   19.28    3.37   0
 -11  -9   5   17.26    3.15   0
 -11  -9   5   21.21    3.35   0
 -11   9   5   19.22    3.36   0
 -11   9   5   17.47    2.39   0
 -11  -9   5   19.23    2.45   0
  11  -9  -5   19.73    3.37   0
 -10  -9   5   46.78    3.17   0
 -10   9   5   44.12    2.58   0
 -10  -9   5   42.52    2.47   0
  10  -9  -5   49.19    3.31   0
 -10  -9   5   51.45    3.44   0
 -10   9   5   52.18    3.28   0
  -9  -9   5    1.22    2.04   0
   9  -9  -5    4.06    2.13   0
  -9   9   5    3.49    2.99   0
  -9  -9   5    5.51    2.94   0
  -9   9   5    4.25    3.02   0
  -9  -9   5    1.31    2.15   0
  -8  -9   5   30.50    2.15   0
  -8  -9   5   29.20    2.30   0
   8  -9  -5   27.23    3.07   0
  -8   9   5   32.49    3.05   0
  -8  -9   5   34.54    3.29   0
  -8   9   5   32.48    3.07   0
  -7  -9   5   54.14    2.34   0
  -7  -9   5   59.96    3.04   0
   7  -9  -5   57.48    2.46   0
  -7   9   5   54.65    3.03   0
  -7  -9   5   62.15    3.36   0
  -7   9   5   62.38    3.10   0
   6  -9  -5    1.40    2.61   0
  -6  -9   5    3.12    2.73   0
  -6  -9   5    1.75    1.96   0
  -6   9   5    2.29    2.68   0
  -6  -9   5    1.10    2.73   0
  -6   9   5    0.10    2.77   0
  -5  -9   5   13.92    2.70   0
   5  -9  -5   11.72    1.96   0
  -5  -9   5   13.20    1.83   0
  -5  -9   5   16.20    2.86   0
  -5   9   5   11.31    2.71   0
  -5   9   5   14.97    2.78   0
  -4  -9   5    6.94    2.72   0
   4  -9  -5    6.15    2.62   0
  -4  -9   5    5.92    1.77   0
   4   9  -5    4.14    2.01   0
  -4   9   5    4.38    1.86   0
  -4  -9   5    4.13    2.49   0
  -4   9   5    5.43    2.64   0
   3  -9  -5    4.14    2.49   0
  -3  -9   5    4.18    1.69   0
  -3  -9   5    4.18    1.72   0
   3   9  -5    3.74    1.95   0
  -3   9   5    3.19    2.50   0
  -3  -9   5    3.35    1.96   0
  -3   9   5    3.55    1.88   0
  -2  -9   5  117.70    2.59   0
   2  -9  -5  117.87    2.50   0
   2   9  -5  118.45    2.81   0
  -2  -9   5  112.01    2.58   0
  -2   9   5  108.59    2.44   0
  -2  -9   5  134.16    3.45   0
  -2   9   5  111.63    3.51   0
  -1  -9   5   95.58    3.15   0
  -1  -9   5   97.52    2.49   0
  -1  -9   5  101.76    2.65   0
  -1   9   5   96.86    4.08   0
   1   9  -5  102.29    3.31   0
  -1   9   5   90.64    2.37   0
   1  -9  -5   94.23    2.37   0
   0  -9   5  349.46    3.79   0
   0  -9   5  360.03    3.75   0
   0   9   5  336.00    4.03   0
   0   9  -5  372.94    4.38   0
   0   9   5  342.09    8.03   0
   0  -9   5  355.60    3.83   0
   0  -9  -5  362.33    4.14   0
  -1   9  -5   88.18    2.47   0
   1   9   5   78.82    2.35   0
   1  -9   5   85.58    2.37   0
   1  -9   5   88.99    3.10   0
   1  -9   5   84.02    3.09   0
  -1  -9  -5   88.00    3.06   0
   2  -9   5  131.09    3.40   0
   2  -9   5  128.02    3.40   0
   2   9   5  123.59    3.23   0
  -2   9  -5  142.34    3.42   0
   2  -9   5  128.30    2.62   0
  -2  -9  -5  133.83    2.74   0
   3  -9   5  485.72    5.17   0
   3  -9   5  497.72    5.18   0
   3   9   5  448.50    4.18   0
  -3   9  -5  493.87    4.17   0
   3  -9   5  487.08    4.55   0
  -3  -9  -5  492.97    4.41   0
   4  -9   5  400.95    5.07   0
   4  -9   5  381.89    4.46   0
   4   9   5  385.57    4.52   0
   4  -9   5  414.55    4.21   0
  -4   9  -5  411.15    3.79   0
  -4  -9  -5  404.18    4.08   0
   5   9   5   93.29    3.45   0
   5  -9   5   97.83    2.55   0
   5  -9   5   98.47    3.76   0
  -5   9  -5  105.26    2.61   0
   5  -9   5   98.66    3.65   0
  -5  -9  -5  103.11    3.47   0
  -6  -9  -5   12.26    3.09   0
   6   9   5   10.83    3.13   0
   6  -9   5   11.21    3.21   0
   6  -9   5   11.92    3.02   0
   6  -9   5    9.23    3.01   0
  -6   9  -5   12.36    3.06   0
  -7  -9  -5   80.77    3.56   0
   7  -9   5   77.22    4.55   0
   7   9   5   67.69    2.80   0
  -7   9  -5   80.37    3.46   0
   7  -9   5   76.90    2.53   0
   7  -9   5   74.10    4.55   0
  -8  -9  -5   12.29    3.33   0
  -8   9  -5   12.26    2.40   0
   8  -9   5   12.58    2.34   0
  -9  -9  -5   34.57    3.56   0
  -9   9  -5   31.13    2.57   0
   9  -9   5   30.59    2.60   0
 -11 -10   5   54.12    2.77   0
 -11 -10   5   52.44    2.68   0
 -11  10   5   56.13    3.74   0
 -11 -10   5   53.23    2.81   0
 -11 -10   5   54.53    2.60   0
 -11  10   5   49.04    2.68   0
  11 -10  -5   57.05    3.67   0
 -10 -10   5  848.36    5.98   0
 -10 -10   5  783.46    5.49   0
 -10 -10   5  797.74    6.16   0
  10 -10  -5  831.38    6.55   0
 -10  10   5  744.56    5.90   0
 -10  10   5  794.80    5.64   0
  -9 -10   5  495.39    4.89   0
   9 -10  -5  504.99    5.32   0
  -9  10   5  479.99    5.17   0
  -9 -10   5  512.54    4.97   0
  -9  10   5  498.05    4.78   0
  -9 -10   5  532.66    5.53   0
  -8 -10   5 1091.45    6.35   0
  -8 -10   5 1119.85    6.40   0
   8 -10  -5 1108.62    6.89   0
  -8 -10   5 1084.58    6.80   0
  -8  10   5 1044.03    6.68   0
  -8  10   5 1028.81    5.73   0
   7 -10  -5 1189.29    6.87   0
  -7 -10   5 1159.24    5.93   0
  -7 -10   5 1211.88    7.08   0
  -7 -10   5 1213.78    6.40   0
  -7  10   5 1150.10    6.68   0
  -7  10   5 1167.35    6.58   0
  -6 -10   5 1354.87    7.60   0
   6 -10  -5 1179.56    6.30   0
  -6 -10   5 1203.20    6.05   0
  -6  10   5 1219.71    6.87   0
  -6  10   5 1146.22    6.29   0
  -6 -10   5 1213.00    6.03   0
   5 -10  -5  328.98    4.10   0
  -5 -10   5  337.79    3.57   0
  -5 -10   5  344.08    4.11   0
  -5 -10   5  371.96    4.63   0
  -5  10   5  314.64    3.52   0
  -5  10   5  344.85    4.42   0
   4  10  -5   16.07    3.00   0
   4 -10  -5   15.96    2.01   0
  -4 -10   5   16.67    1.90   0
  -4 -10   5   17.58    2.65   0
  -4 -10   5   18.26    3.04   0
  -4  10   5   24.39    2.77   0
  -4  10   5   15.62    2.02   0
   3 -10  -5  573.81    4.46   0
  -3 -10   5  580.80    4.40   0
  -3 -10   5  617.39    4.92   0
   3  10  -5  557.08    4.76   0
  -3  10   5  572.88    5.69   0
  -3  10   5  538.21    4.33   0
  -3 -10   5  585.27    4.38   0
   2 -10  -5    3.58    2.52   0
  -2 -10   5    5.01    1.94   0
  -2 -10   5    6.02    1.83   0
   2  10  -5    8.72    1.96   0
  -2  10   5    4.94    2.48   0
  -2 -10   5    4.60    1.88   0
  -2  10   5    6.09    2.68   0
  -1 -10   5   42.52    2.89   0
   1  10  -5   40.78    3.04   0
  -1  10   5   44.17    2.72   0
  -1 -10   5   43.43    2.20   0
  -1  10   5   42.91    3.26   0
   1 -10  -5   39.94    2.74   0
   0 -10   5  193.56    3.04   0
   0  10   5  186.51    2.84   0
   0  10   5  205.64    6.95   0
   0 -10   5  215.10    3.66   0
   0  10  -5  211.29    3.71   0
   0 -10  -5  199.20    3.43   0
   1  10   5  419.04    3.94   0
   1 -10   5  447.20    4.31   0
   1 -10   5  431.62    4.20   0
   1 -10   5  443.84    4.01   0
  -1  10  -5  491.08    4.25   0
  -1 -10  -5  461.45    4.56   0
   2 -10   5 1542.14    7.44   0
   2  10   5 1512.40    7.11   0
  -2  10  -5 1633.60    6.93   0
   2 -10   5 1679.62    7.31   0
   2 -10   5 1610.70    7.95   0
  -2 -10  -5 1590.81    7.05   0
   3 -10   5 1422.97    7.83   0
  -3  10  -5 1498.39    6.99   0
   3 -10   5 1370.44    7.69   0
   3  10   5 1275.86    6.44   0
   3 -10   5 1448.30    6.80   0
  -3 -10  -5 1390.16    6.76   0
   4  10   5  218.84    3.91   0
  -4  10  -5  244.32    3.77   0
   4 -10   5  222.44    4.28   0
   4 -10   5  219.54    3.01   0
  -4 -10  -5  233.07    3.30   0
   4 -10   5  232.69    4.23   0
  -5 -10  -5  612.10    4.95   0
   5  10   5  582.13    5.30   0
   5 -10   5  610.90    6.17   0
  -5  10  -5  650.72    5.10   0
   5 -10   5  613.08    4.40   0
   5 -10   5  596.30    6.08   0
   6 -10   5  926.90    5.29   0
   6  10   5  870.60    6.38   0
   6 -10   5  902.03    8.25   0
  -6  10  -5  938.97    5.39   0
   6 -10   5  879.13    7.79   0
  -6 -10  -5  891.14    5.98   0
  -7 -10  -5   80.07    3.63   0
   7  10   5   72.76    3.62   0
  -7  10  -5   84.14    2.64   0
   7 -10   5   70.45    3.87   0
   7 -10   5   68.41    4.49   0
   7 -10   5   76.15    2.61   0
  -8 -10  -5    7.51    3.27   0
   8 -10   5    8.65    2.30   0
   8 -10   5    9.04    4.83   0
   8 -10   5    8.16    4.98   0
  -8  10  -5   13.34    3.41   0
 -11 -11   5   21.03    3.58   0
 -11 -11   5   15.71    2.53   0
 -11 -11   5   19.58    3.42   0
 -11 -11   5   16.13    3.31   0
  11 -11  -5   20.43    3.53   0
 -11  11   5   21.80    3.47   0
 -11  11   5   20.37    3.53   0
 -10 -11   5    0.74    3.44   0
 -10 -11   5    3.95    2.16   0
 -10  11   5    2.57    3.15   0
 -10 -11   5    4.06    3.18   0
  10 -11  -5    3.67    3.32   0
 -10  11   5    2.16    3.32   0
  -9 -11   5    2.38    2.11   0
  -9 -11   5   -0.28    3.26   0
  -9  11   5    2.18    3.18   0
  -9 -11   5    1.86    2.18   0
  -9  11   5    0.67    2.29   0
   9 -11  -5   -0.40    2.29   0
   8 -11  -5  243.88    4.15   0
  -8 -11   5  244.42    3.95   0
  -8 -11   5  222.05    3.32   0
  -8  11   5  226.14    4.04   0
  -8 -11   5  254.89    4.53   0
  -8  11   5  239.87    4.10   0
  -7 -11   5   65.65    3.13   0
   7 -11  -5   60.11    2.54   0
  -7 -11   5   67.95    3.41   0
  -7  11   5   59.52    3.24   0
  -7 -11   5   64.74    2.43   0
  -7  11   5   62.68    3.34   0
  -6 -11   5  207.33    4.09   0
  -6 -11   5  185.66    2.98   0
  -6 -11   5  200.41    3.67   0
   6 -11  -5  194.94    3.75   0
  -6  11   5  177.90    3.71   0
  -6  11   5  184.27    3.16   0
   5 -11  -5  139.50    2.75   0
  -5 -11   5  148.71    2.77   0
  -5 -11   5  160.99    3.73   0
  -5  11   5  140.97    3.49   0
  -5  11   5  140.96    3.63   0
  -5 -11   5  148.57    2.77   0
   4 -11  -5    2.95    1.97   0
  -4 -11   5    1.40    1.89   0
  -4  11   5    0.30    2.81   0
  -4 -11   5    1.41    1.84   0
  -4  11   5    1.42    2.00   0
   4  11  -5    2.33    2.13   0
  -4 -11   5    0.66    2.84   0
   3 -11  -5   37.44    2.09   0
  -3 -11   5   41.90    2.74   0
  -3  11   5   38.53    2.17   0
   3  11  -5   41.76    3.12   0
  -3 -11   5   42.87    2.19   0
  -3 -11   5   39.21    2.14   0
  -3  11   5   40.23    3.02   0
   2  11  -5  254.91    3.47   0
  -2  11   5  259.58    4.58   0
  -2 -11   5  269.22    3.82   0
  -2 -11   5  284.43    4.11   0
  -2  11   5  253.61    3.18   0
   2 -11  -5  258.46    3.21   0
  -1 -11   5   13.25    2.06   0
  -1  11   5   12.30    1.89   0
   1  11  -5    9.76    2.86   0
  -1  11   5   10.07    3.43   0
  -1 -11   5   12.20    1.95   0
   1 -11  -5   11.46    1.91   0
   0 -11   5    0.01    2.59   0
   0  11   5    6.42    1.90   0
   0  11  -5    5.20    2.85   0
   0  11   5    1.29    4.08   0
   0 -11   5    1.60    1.90   0
   0 -11  -5    5.60    2.69   0
   1  11   5  682.13    4.72   0
  -1  11  -5  778.27    5.56   0
   1 -11   5  745.03    5.65   0
   1 -11   5  735.13    4.91   0
  -1 -11  -5  729.87    4.89   0
   2 -11   5  359.70    3.92   0
  -2 -11  -5  376.27    4.23   0
  -2  11  -5  371.13    3.82   0
   2 -11   5  368.65    3.71   0
   2 -11   5  360.34    4.46   0
   2  11   5  327.55    3.56   0
   3 -11   5  260.54    4.23   0
   3  11   5  244.50    3.97   0
   3 -11   5  266.76    4.27   0
  -3  11  -5  264.97    3.99   0
   3 -11   5  254.53    3.24   0
  -3 -11  -5  270.06    3.98   0
   4 -11   5    3.46    2.10   0
   4  11   5    3.12    2.98   0
   4 -11   5    4.09    2.92   0
  -4  11  -5    3.39    2.09   0
   4 -11   5    4.70    2.17   0
  -4 -11  -5    3.68    2.98   0
   5  11   5    4.42    2.22   0
   5 -11   5    5.78    3.04   0
   5 -11   5    3.56    2.87   0
  -5  11  -5    2.83    2.04   0
   5 -11   5    1.33    2.98   0
  -5 -11  -5    2.15    3.00   0
   6  11   5    1.13    3.21   0
  -6  11  -5    5.29    3.18   0
   6 -11   5    0.81    3.20   0
   6 -11   5    2.42    3.20   0
   6 -11   5    4.03    3.02   0
  -6 -11  -5    1.31    2.21   0
  -7 -11  -5  119.02    3.84   0
   7 -11   5  113.25    4.32   0
   7  11   5  105.77    3.88   0
   7 -11   5  108.37    4.92   0
  -7  11  -5  122.66    3.80   0
   7 -11   5  130.91    3.71   0
  -8 -11  -5    3.20    3.33   0
   8 -11   5    4.10    4.24   0
   8 -11   5    3.84    4.24   0
  -8  11  -5    4.22    2.43   0
   8 -11   5    6.04    3.36   0
 -10 -12   5  119.44    2.94   0
 -10  12   5  120.07    3.29   0
  10 -12  -5  130.35    4.01   0
 -10 -12   5  135.10    4.14   0
 -10  12   5  122.94    3.94   0
 -10 -12   5  119.39    3.15   0
  -9 -12   5  624.20    4.84   0
  -9  12   5  599.64    4.77   0
   9 -12  -5  590.14    5.19   0
  -9  12   5  619.66    5.69   0
  -9 -12   5  667.32    6.29   0
  -9 -12   5  589.30    4.76   0
  -8 -12   5 1179.36    6.25   0
   8 -12  -5 1228.88    6.70   0
  -8 -12   5 1285.87    6.81   0
  -8  12   5 1167.80    6.59   0
  -8 -12   5 1282.27    7.59   0
  -8  12   5 1171.99    6.39   0
  -7 -12   5 1127.80    7.33   0
   7 -12  -5 1033.23    6.37   0
  -7 -12   5 1030.46    6.02   0
  -7  12   5  944.22    5.78   0
  -7  12   5 1016.90    6.31   0
  -7 -12   5 1016.67    6.02   0
   6 -12  -5   56.95    3.16   0
  -6 -12   5   58.10    3.08   0
  -6 -12   5   53.87    2.35   0
  -6  12   5   53.20    3.26   0
  -6 -12   5   59.62    3.28   0
  -6  12   5   49.02    2.37   0
   5 -12  -5  333.92    3.55   0
  -5  12   5  333.32    4.54   0
  -5 -12   5  326.49    3.45   0
  -5 -12   5  330.20    3.50   0
  -5 -12   5  362.44    4.67   0
  -5  12   5  306.64    3.52   0
  -4 -12   5  961.29    5.77   0
   4 -12  -5  909.68    5.32   0
   4  12  -5  869.62    5.99   0
  -4 -12   5  954.88    5.73   0
  -4  12   5  904.33    5.76   0
  -4 -12   5  958.61    6.06   0
  -4  12   5  936.32    6.64   0
   3 -12  -5   18.56    2.90   0
  -3  12   5   15.74    2.11   0
  -3 -12   5   19.13    1.89   0
   3  12  -5   19.24    2.22   0
  -3 -12   5   20.91    2.14   0
  -3  12   5   18.38    2.98   0
  -2 -12   5    0.62    1.92   0
   2 -12  -5    3.47    1.90   0
  -2  12   5    4.31    2.73   0
  -2 -12   5   -0.72    1.90   0
  -2  12   5    1.34    2.88   0
   2  12  -5   -1.35    2.92   0
  -1  12   5   47.83    3.39   0
   1  12  -5   50.65    2.33   0
  -1  12   5   48.03    2.17   0
  -1 -12   5   54.19    2.99   0
  -1 -12   5   50.69    2.97   0
   1 -12  -5   48.96    2.99   0
   0 -12   5   17.27    2.85   0
   0  12   5   19.19    4.52   0
   0  12  -5   23.70    2.98   0
   0  12   5   16.91    2.02   0
   0 -12  -5   19.14    2.79   0
   0 -12   5   19.53    2.81   0
  -1  12  -5   92.15    3.23   0
   1  12   5   79.27    3.19   0
   1 -12   5   85.56    3.22   0
   1 -12   5   86.37    3.15   0
  -1 -12  -5   87.79    3.16   0
   2  12   5  333.60    4.12   0
   2 -12   5  353.00    3.61   0
  -2  12  -5  378.81    4.36   0
   2 -12   5  357.52    4.34   0
  -2 -12  -5  370.05    4.23   0
   3 -12   5  612.63    4.99   0
  -3  12  -5  624.91    4.60   0
   3  12   5  570.80    5.03   0
   3 -12   5  608.26    5.50   0
   3 -12   5  613.24    4.55   0
  -3 -12  -5  633.85    5.14   0
   4 -12   5  740.58    5.71   0
   4 -12   5  723.31    5.65   0
   4  12   5  706.92    5.53   0
  -4  12  -5  817.44    5.65   0
   4 -12   5  776.00    5.54   0
  -4 -12  -5  766.57    5.20   0
   5  12   5  644.64    5.43   0
  -5 -12  -5  680.97    5.09   0
   5 -12   5  651.11    5.73   0
   5 -12   5  670.51    6.19   0
  -5  12  -5  755.50    5.46   0
   5 -12   5  712.59    5.30   0
   6  12   5   54.70    2.65   0
   6 -12   5   62.77    3.71   0
  -6  12  -5   59.89    2.69   0
   6 -12   5   54.10    2.77   0
   6 -12   5   67.53    3.38   0
  -6 -12  -5   67.69    3.53   0
  -7 -12  -5  165.73    4.13   0
   7  12   5  133.52    3.35   0
   7 -12   5  150.77    4.56   0
  -7  12  -5  159.48    3.10   0
   7 -12   5  139.11    4.58   0
   7 -12   5  160.40    3.07   0
 -10 -13   5   85.54    3.56   0
  10 -13  -5   68.88    2.97   0
 -10  13   5   75.33    3.85   0
 -10 -13   5   72.36    3.16   0
 -10 -13   5   74.09    2.85   0
 -10  13   5   79.18    3.82   0
  -9 -13   5   32.64    3.30   0
  -9 -13   5   24.34    2.48   0
   9 -13  -5   29.05    3.49   0
  -9  13   5   27.27    2.57   0
  -9 -13   5   31.81    3.54   0
  -9  13   5   29.59    3.40   0
  -8 -13   5   83.01    3.65   0
   8 -13  -5   75.96    3.54   0
  -8  13   5   67.91    3.54   0
  -8 -13   5   71.90    2.58   0
  -8 -13   5   71.04    2.66   0
  -8  13   5   71.73    3.64   0
  -7 -13   5    2.73    3.05   0
   7 -13  -5    3.33    3.27   0
  -7 -13   5    3.15    2.10   0
  -7 -13   5    1.85    2.23   0
  -7  13   5    4.31    2.26   0
  -7  13   5    2.02    2.27   0
   6 -13  -5   19.28    3.05   0
  -6 -13   5   17.56    2.97   0
  -6 -13   5   17.10    3.15   0
  -6  13   5   19.05    3.07   0
  -6  13   5   15.67    3.25   0
  -6 -13   5   18.37    3.09   0
  -5 -13   5    4.36    2.86   0
   5 -13  -5    6.17    2.88   0
  -5 -13   5    0.23    2.00   0
  -5 -13   5    1.13    2.92   0
  -5  13   5    2.72    2.12   0
  -5  13   5    1.33    2.90   0
   4 -13  -5  153.46    3.47   0
  -4 -13   5  141.65    2.74   0
   4  13  -5  128.56    3.19   0
  -4  13   5  138.19    3.44   0
  -4 -13   5  141.53    3.38   0
  -4  13   5  138.33    3.77   0
  -4 -13   5  151.57    3.10   0
   3 -13  -5   22.83    2.18   0
  -3  13   5   22.88    3.07   0
   3  13  -5   26.32    3.22   0
  -3 -13   5   27.04    2.99   0
  -3  13   5   22.19    3.05   0
  -3 -13   5   24.22    2.21   0
  -2 -13   5    1.46    1.98   0
   2  13  -5    3.55    2.96   0
  -2  13   5   -0.03    2.94   0
  -2 -13   5    1.02    1.95   0
  -2  13   5    1.34    2.79   0
   2 -13  -5   -0.31    1.91   0
  -1 -13   5  193.19    3.70   0
  -1  13   5  166.01    2.82   0
   1  13  -5  177.17    3.14   0
  -1 -13   5  175.61    3.54   0
  -1  13   5  178.89    4.66   0
   1 -13  -5  188.09    3.48   0
   0  13   5  174.59    2.96   0
   0  13   5  189.67    6.87   0
   0  13  -5  198.25    3.88   0
   0 -13   5  193.79    3.60   0
   0 -13   5  192.39    3.01   0
   0 -13  -5  191.78    3.60   0
   1  13   5   79.41    2.50   0
   1 -13   5   91.67    2.61   0
  -1  13  -5   86.35    2.64   0
   1 -13   5   87.88    3.23   0
  -1 -13  -5   94.59    3.28   0
  -2  13  -5   16.98    2.20   0
   2 -13   5   23.17    2.97   0
   2 -13   5   15.99    3.02   0
   2  13   5   13.43    2.99   0
  -2 -13  -5   19.95    2.98   0
   3  13   5    5.22    2.15   0
  -3  13  -5    4.58    2.19   0
   3 -13   5    5.85    3.08   0
   3 -13   5    4.66    2.15   0
   3 -13   5    4.91    2.92   0
  -3 -13  -5    4.45    3.10   0
   4 -13   5   39.88    3.29   0
   4  13   5   35.59    2.45   0
  -4  13  -5   36.63    2.48   0
   4 -13   5   35.65    2.56   0
   4 -13   5   36.96    3.39   0
  -4 -13  -5   36.73    2.35   0
   5  13   5   78.79    2.78   0
  -5  13  -5   93.31    2.81   0
   5 -13   5   85.83    3.76   0
   5 -13   5   87.65    3.75   0
   5 -13   5   92.00    3.50   0
  -5 -13  -5   91.83    2.80   0
   6 -13   5   34.48    3.64   0
   6  13   5   33.14    3.52   0
   6 -13   5   33.29    3.69   0
  -6  13  -5   38.80    3.54   0
   6 -13   5   36.82    2.52   0
  -6 -13  -5   36.30    3.44   0
  -9 -14   5  134.94    3.10   0
   9 -14  -5  148.64    4.07   0
  -9 -14   5  149.25    3.89   0
  -9  14   5  138.13    3.35   0
  -9 -14   5  148.45    3.71   0
  -9  14   5  153.41    4.10   0
   8 -14  -5   38.48    3.46   0
  -8  14   5   37.62    3.57   0
  -8 -14   5   39.71    3.52   0
  -8 -14   5   37.28    3.19   0
  -8  14   5   36.37    2.64   0
  -8 -14   5   39.13    2.43   0
  -7 -14   5   10.34    2.28   0
   7 -14  -5    8.36    3.13   0
  -7 -14   5   11.22    2.14   0
  -7  14   5    8.24    3.22   0
  -7 -14   5   10.53    2.30   0
  -7  14   5    9.63    3.34   0
   6 -14  -5   16.92    2.26   0
  -6  14   5   16.43    3.14   0
  -6 -14   5   18.81    3.22   0
  -6  14   5   14.78    2.36   0
  -6 -14   5   17.94    3.09   0
  -6 -14   5   15.88    2.23   0
   5 -14  -5  146.52    2.91   0
  -5 -14   5  150.24    3.49   0
  -5 -14   5  149.87    2.75   0
  -5  14   5  136.38    3.67   0
  -5 -14   5  155.70    3.87   0
  -5  14   5  148.91    3.90   0
   4 -14  -5  260.51    3.32   0
  -4 -14   5  243.99    3.23   0
  -4 -14   5  268.45    3.84   0
  -4 -14   5  274.92    4.31   0
  -4  14   5  253.70    4.03   0
  -4  14   5  244.55    3.80   0
   4  14  -5  257.87    4.49   0
   3 -14  -5    2.62    2.08   0
  -3  14   5   -1.42    2.10   0
  -3 -14   5    0.92    2.02   0
  -3  14   5   -0.65    2.13   0
  -3 -14   5   -1.00    2.93   0
   3  14  -5    4.00    2.23   0
   2  14  -5   43.90    3.37   0
  -2 -14   5   46.75    2.30   0
  -2  14   5   44.67    3.49   0
  -2 -14   5   45.05    3.19   0
  -2  14   5   38.17    2.28   0
   2 -14  -5   47.26    2.33   0
  -1  14   5   19.20    3.04   0
   1  14  -5   19.40    3.21   0
  -1  14   5   21.25    3.39   0
  -1 -14   5   22.52    2.95   0
  -1 -14   5   22.91    3.04   0
   1 -14  -5   19.98    2.89   0
   0 -14   5   71.20    3.24   0
   0  14   5   71.36    5.67   0
   0  14  -5   75.96    2.67   0
   0  14   5   68.82    3.23   0
   0 -14   5   77.02    3.32   0
   0 -14  -5   77.75    3.26   0
   1  14   5    1.05    2.96   0
  -1  14  -5    1.70    3.12   0
   1 -14   5    2.91    2.06   0
   1 -14   5    2.82    2.90   0
  -1 -14  -5    4.25    2.12   0
   2 -14   5   60.40    2.49   0
  -2  14  -5   59.43    3.42   0
  -2 -14  -5   63.60    3.29   0
   2  14   5   53.84    2.49   0
   2 -14   5   64.29    3.20   0
   3  14   5   77.89    2.67   0
   3 -14   5   86.49    3.53   0
   3 -14   5   90.76    2.62   0
  -3  14  -5   95.19    3.48   0
   3 -14   5   89.31    3.52   0
  -3 -14  -5   99.51    3.42   0
   4 -14   5  235.18    4.49   0
   4  14   5  217.01    3.43   0
  -4  14  -5  261.22    3.48   0
   4 -14   5  237.87    3.79   0
   4 -14   5  251.10    3.37   0
  -4 -14  -5  248.10    3.47   0
   5  14   5  143.97    3.92   0
  -5  14  -5  149.11    3.22   0
   5 -14   5  150.72    4.11   0
   5 -14   5  167.85    3.86   0
  -5 -14  -5  155.84    3.16   0
   5 -14   5  146.66    4.13   0
   6 -14   5  206.09    3.52   0
  -6  14  -5  207.81    3.56   0
  -6 -14  -5  222.03    4.29   0
  -8 -15   5    8.62    3.16   0
  -8  15   5    4.87    3.49   0
  -8 -15   5    9.40    3.39   0
   8 -15  -5    5.68    2.41   0
  -8 -15   5    5.84    3.25   0
  -8  15   5    6.93    3.44   0
  -7 -15   5    3.21    3.09   0
  -7 -15   5    0.91    2.22   0
   7 -15  -5    1.67    3.29   0
  -7  15   5    1.09    3.40   0
  -7 -15   5    3.35    2.26   0
  -7  15   5    8.42    3.45   0
  -6  15   5    0.34    3.28   0
   6 -15  -5   -1.45    2.24   0
  -6 -15   5   -0.46    2.20   0
  -6 -15   5    1.50    3.15   0
  -6  15   5    1.76    2.33   0
  -6 -15   5   -2.33    2.22   0
   5 -15  -5   20.44    2.33   0
  -5 -15   5   21.47    3.01   0
  -5 -15   5   25.05    3.18   0
  -5  15   5   23.04    3.33   0
  -5 -15   5   21.45    2.17   0
  -5  15   5   18.96    3.31   0
   4 -15  -5    4.03    2.20   0
  -4 -15   5    4.48    2.08   0
  -4  15   5    3.77    3.14   0
   4  15  -5    1.96    3.40   0
  -4  15   5    3.89    3.21   0
  -4 -15   5    2.67    2.13   0
  -4 -15   5    3.46    2.03   0
   3 -15  -5   44.20    2.33   0
   3  15  -5   37.53    2.69   0
  -3 -15   5   45.69    3.08   0
  -3  15   5   35.36    3.41   0
  -3 -15   5   40.01    3.26   0
  -3  15   5   36.44    2.48   0
  -2  15   5   60.85    2.52   0
   2  15  -5   67.88    3.55   0
  -2  15   5   71.27    3.84   0
  -2 -15   5   80.09    3.39   0
  -2 -15   5   69.68    3.23   0
   2 -15  -5   71.10    2.47   0
  -1  15   5   43.74    2.38   0
   1  15  -5   50.45    3.46   0
  -1 -15   5   46.24    2.32   0
  -1  15   5   48.29    3.78   0
  -1 -15   5   51.05    3.21   0
   1 -15  -5   48.15    2.33   0
   0  15   5    0.86    4.52   0
   0  15   5    1.50    2.21   0
   0  15  -5    1.21    3.23   0
   0 -15   5   -0.74    2.07   0
   0 -15   5    1.39    2.18   0
   0 -15  -5    2.20    2.20   0
   1 -15   5   14.60    3.12   0
   1  15   5   12.77    2.24   0
  -1  15  -5   12.19    2.34   0
   1 -15   5   13.18    3.05   0
  -1 -15  -5   10.89    2.25   0
   2  15   5   11.79    2.33   0
  -2  15  -5   12.61    3.33   0
   2 -15   5   14.19    3.16   0
   2 -15   5   15.14    2.24   0
  -2 -15  -5   13.52    2.18   0
   3 -15   5    2.17    3.20   0
   3  15   5   -0.20    2.25   0
   3 -15   5    2.45    3.17   0
  -3  15  -5    3.28    2.24   0
   3 -15   5    1.51    2.26   0
  -3 -15  -5    1.31    2.12   0
   4 -15   5   21.62    3.32   0
   4  15   5   17.25    2.40   0
   4 -15   5   21.48    2.49   0
  -4  15  -5   25.44    3.52   0
   4 -15   5   25.84    3.39   0
  -4 -15  -5   24.89    3.27   0
  -5 -15  -5   20.68    3.36   0
   6 -16  -5   78.56    3.63   0
  -6  16   5   70.63    3.72   0
  -6 -16   5   72.79    3.71   0
  -6  16   5   74.24    2.92   0
  -6 -16   5   78.33    3.47   0
  -6 -16   5   70.18    2.72   0
   5 -16  -5   37.17    2.53   0
  -5 -16   5   41.53    3.29   0
  -5  16   5   39.46    2.55   0
  -5 -16   5   38.52    3.34   0
  -5  16   5   37.17    3.59   0
  -5 -16   5   43.42    3.40   0
   4 -16  -5   -0.26    3.01   0
  -4 -16   5    2.90    2.26   0
  -4 -16   5    3.10    3.06   0
   4  16  -5    3.83    2.48   0
  -4  16   5    0.90    3.35   0
  -4  16   5    2.22    2.23   0
  -4 -16   5    2.16    2.23   0
   3 -16  -5    4.62    3.15   0
   3  16  -5    4.79    2.39   0
  -3 -16   5    2.40    2.08   0
  -3  16   5    4.69    3.30   0
  -3  16   5    4.41    3.23   0
  -3 -16   5    5.87    3.17   0
  -2  16   5   53.78    3.48   0
  -2 -16   5   54.90    2.46   0
   2  16  -5   50.72    3.60   0
  -2  16   5   52.57    3.75   0
  -2 -16   5   52.35    3.35   0
   2 -16  -5   54.13    3.41   0
  -1  16   5   20.27    3.33   0
   1  16  -5   22.83    2.51   0
  -1  16   5   23.56    4.40   0
  -1 -16   5   22.28    3.16   0
  -1 -16   5   23.30    2.26   0
   1 -16  -5   21.46    2.30   0
   0  16   5   55.55    2.49   0
   0  16  -5   65.07    2.77   0
   0  16   5   62.87    7.23   0
   0 -16   5   73.65    3.45   0
   0 -16   5   72.77    3.35   0
   0 -16  -5   64.48    2.59   0
  -1  16  -5    3.55    3.41   0
   1  16   5    1.54    2.32   0
   1 -16   5    3.54    3.12   0
   1 -16   5    1.07    2.23   0
  -1 -16  -5   -0.57    3.21   0
  -2  16  -5    6.24    2.49   0
   2  16   5    2.75    3.35   0
   2 -16   5    4.82    2.22   0
  -2 -16  -5    9.98    3.18   0
   2 -16   5    6.23    3.30   0
   3 -16   5   35.54    2.61   0
   3  16   5   31.67    2.53   0
  -3  16  -5   37.26    2.68   0
   3 -16   5   31.33    2.60   0
   3 -16   5   41.57    3.48   0
  -3 -16  -5   41.87    3.35   0
   5 -17  -5    1.30    2.31   0
  -5 -17   5    3.93    2.30   0
  -5  17   5    1.95    2.41   0
  -5 -17   5    4.53    2.34   0
  -5  17   5    3.29    2.48   0
  -5 -17   5    1.40    2.37   0
   4 -17  -5  275.96    4.42   0
  -4 -17   5  248.01    4.20   0
  -4  17   5  237.25    3.62   0
  -4 -17   5  248.44    3.54   0
  -4  17   5  274.36    5.00   0
  -4 -17   5  271.18    4.78   0
   3 -17  -5  199.25    4.01   0
  -3  17   5  174.57    4.07   0
  -3 -17   5  187.49    3.19   0
  -3  17   5  194.70    4.70   0
  -3 -17   5  201.39    4.37   0
   3  17  -5  183.00    4.49   0
  -2  17   5   39.40    3.85   0
   2  17  -5   36.73    3.68   0
  -2  17   5   36.93    2.58   0
  -2 -17   5   35.70    2.58   0
  -2 -17   5   36.79    2.41   0
   2 -17  -5   37.13    2.46   0
   1  17  -5  287.16    4.74   0
  -1  17   5  267.02    3.60   0
  -1 -17   5  291.00    3.69   0
  -1 -17   5  287.33    3.98   0
   1 -17  -5  290.53    3.61   0
  -1  17   5  288.74    6.17   0
   0 -17   5  174.77    3.26   0
   0  17   5  181.26    4.06   0
   0  17  -5  168.85    4.32   0
   0 -17   5  182.05    3.44   0
   0 -17  -5  178.40    3.22   0
  -1  17  -5   23.36    3.59   0
   1  17   5   21.66    3.50   0
   1 -17   5   21.11    2.45   0
   1 -17   5   19.70    2.49   0
  -1 -17  -5   26.17    2.42   0
 -14   0   6  126.82    4.60   0
 -14   0   6  115.38    4.49   0
 -14   0   6  117.54    3.21   0
 -13   0   6   46.04    3.71   0
 -13   0   6   42.81    2.62   0
 -12   0   6   12.50    3.14   0
 -12   0   6   10.62    3.21   0
 -11   0   6   13.33    3.03   0
 -11   0   6   13.52    2.22   0
  11   0  -6   12.78    2.95   0
 -10   0   6  100.81    2.61   0
  10   0  -6   98.29    3.30   0
 -10   0   6   98.72    2.83   0
  -9   0   6    3.38    2.68   0
  -9   0   6    5.88    2.70   0
   9   0  -6    4.99    2.67   0
   8   0  -6  276.08    4.01   0
  -8   0   6  281.47    3.72   0
  -7   0   6   41.01    2.12   0
   7   0  -6   40.13    2.05   0
  -6   0   6   38.10    2.82   0
   6   0  -6   29.86    2.07   0
   5   0  -6  155.60    3.43   0
  -5   0   6  161.37    3.50   0
   4   0  -6  184.04    3.69   0
  -4   0   6  193.03    3.76   0
   3   0  -6  986.83    6.55   0
  -3   0   6  935.25    7.14   0
  -3   0   6 1053.15    6.98   0
  -2   0   6  358.62    5.03   0
   2   0  -6  353.54    4.31   0
  -2   0   6  362.03    4.35   0
   1   0  -6  384.74    4.59   0
  -1   0   6  402.60    5.31   0
  -1   0   6  376.89    4.55   0
   1   0  -6  369.63    4.78   0
   0   0  -6  325.33    4.69   0
   0   0  -6  303.68    4.31   0
   0   0   6  322.30    4.70   0
   0   0   6  323.23    4.75   0
  -1   0  -6  238.33    4.35   0
   1   0   6  234.12    4.31   0
  -1   0  -6  246.88    4.36   0
   1   0   6  242.26    4.23   0
   2   0   6   29.06    2.78   0
  -2   0  -6   26.96    2.81   0
   2   0   6   26.29    2.04   0
  -2   0  -6   28.39    2.77   0
   3   0   6  268.99    4.96   0
   3   0   6  285.35    4.21   0
  -3   0  -6  308.83    4.44   0
  -3   0  -6  291.89    5.18   0
  -4   0  -6  162.64    3.15   0
   4   0   6  152.88    3.46   0
   4   0   6  143.11    4.58   0
  -4   0  -6  151.88    4.33   0
   5   0   6   11.64    3.35   0
  -5   0  -6   13.57    2.77   0
  -5   0  -6   11.85    3.40   0
   5   0   6   14.00    2.77   0
  -6   0  -6   63.78    3.07   0
   6   0   6   56.62    2.30   0
   7   0   6  121.43    2.92   0
  -7   0  -6  131.79    3.00   0
   8   0   6  126.81    3.65   0
  -8   0  -6  140.63    3.76   0
   9   0   6    3.19    3.18   0
  -9   0  -6    3.76    3.21   0
  10   0   6   11.67    3.38   0
 -10   0  -6   14.18    2.49   0
 -14  -1   6   12.60    3.44   0
 -14  -1   6   14.85    3.68   0
 -14  -1   6   12.66    3.45   0
 -14   1   6   13.61    3.74   0
 -14   1   6   17.74    3.57   0
 -13  -1   6   29.74    3.37   0
 -13  -1   6   28.96    3.57   0
 -13   1   6   27.60    3.53   0
 -13   1   6   29.74    2.49   0
 -12   1   6   66.26    3.33   0
 -12  -1   6   69.41    3.41   0
 -12   1   6   69.54    3.70   0
 -12  -1   6   67.68    2.86   0
  12  -1  -6   68.08    3.48   0
 -11   1   6   11.95    2.99   0
 -11  -1   6   13.12    2.20   0
 -11   1   6   12.14    3.15   0
  11  -1  -6   11.55    2.89   0
 -11  -1   6   14.40    3.01   0
 -10   1   6   51.50    3.04   0
 -10  -1   6   51.52    3.14   0
  10  -1  -6   50.34    3.02   0
 -10  -1   6   55.38    3.16   0
 -10   1   6   51.45    2.48   0
  10   1  -6   51.02    2.99   0
  -9   1   6  525.46    4.68   0
  -9  -1   6  516.77    4.81   0
  -9   1   6  508.30    4.85   0
   9  -1  -6  478.76    4.63   0
   9   1  -6  494.99    4.98   0
  -9  -1   6  520.38    4.80   0
  -8   1   6  203.13    3.09   0
  -8   1   6  217.59    3.90   0
   8  -1  -6  204.01    3.75   0
   8   1  -6  195.52    3.27   0
  -8  -1   6  212.28    3.31   0
   7  -1  -6  148.43    2.88   0
   7   1  -6  142.96    2.83   0
  -7   1   6  161.39    3.51   0
  -7  -1   6  160.60    3.45   0
   6   1  -6  185.99    3.58   0
   6  -1  -6  190.75    3.64   0
  -6   1   6  191.80    3.77   0
  -6  -1   6  190.57    3.19   0
   5  -1  -6  528.88    5.13   0
  -5   1   6  530.26    4.86   0
   5   1  -6  503.66    4.66   0
  -5  -1   6  539.42    4.84   0
  -4  -1   6   87.64    3.03   0
   4  -1  -6   81.15    2.54   0
  -4   1   6   84.42    2.55   0
   4   1  -6   83.06    3.00   0
  -4  -1   6   77.56    2.54   0
  -3  -1   6   29.76    2.82   0
   3  -1  -6   31.06    2.67   0
  -3   1   6   30.88    2.09   0
   3   1  -6   31.48    2.65   0
  -3  -1   6   30.96    2.03   0
  -2  -1   6  216.62    4.18   0
   2   1  -6  220.64    3.94   0
  -2   1   6  203.12    3.81   0
   2   1  -6  218.02    4.16   0
  -2   1   6  225.69    3.99   0
   2  -1  -6  223.92    3.60   0
  -2  -1   6  219.16    3.55   0
  -1   1   6   94.27    3.36   0
  -1   1   6   98.49    3.60   0
   1  -1  -6   91.71    3.50   0
   1   1  -6   94.88    2.73   0
   1   1  -6   92.06    2.82   0
  -1  -1   6  101.10    3.47   0
  -1  -1   6   99.14    3.32   0
   1  -1  -6  100.81    3.37   0
   0   1   6  602.08    5.97   0
   0   1   6  607.67    6.09   0
   0  -1   6  608.65    5.59   0
   0  -1  -6  597.62    6.34   0
   0   1  -6  618.61    6.02   0
   0   1  -6  601.62    5.98   0
   0  -1   6  629.28    6.02   0
   0  -1  -6  629.47    6.08   0
   1  -1   6  334.88    4.59   0
   1   1   6  320.12    4.73   0
  -1  -1  -6  332.31    5.06   0
  -1   1  -6  342.76    4.74   0
   1   1   6  333.65    4.90   0
  -1   1  -6  324.50    4.51   0
  -1  -1  -6  330.67    4.47   0
   1  -1   6  331.50    4.52   0
   2   1   6  405.91    5.00   0
   2  -1   6  451.84    5.83   0
  -2   1  -6  476.93    4.77   0
   2  -1   6  459.30    4.98   0
   2   1   6  458.09    5.37   0
  -2   1  -6  441.39    5.39   0
  -2  -1  -6  469.23    5.77   0
  -2  -1  -6  493.06    5.65   0
  -3  -1  -6 1096.10    8.65   0
   3  -1   6 1039.99    8.85   0
  -3   1  -6 1055.04    8.90   0
  -3  -1  -6 1115.99    7.77   0
  -3   1  -6 1100.30    6.73   0
   3  -1   6 1043.97    6.71   0
   3   1   6 1048.53    7.48   0
   3   1   6  983.67    8.09   0
   4  -1   6   38.91    3.57   0
  -4   1  -6   38.23    3.11   0
  -4  -1  -6   43.16    3.07   0
  -4  -1  -6   45.39    3.12   0
  -4   1  -6   41.74    2.19   0
   4   1   6   37.38    3.42   0
   4  -1   6   40.38    2.78   0
   4   1   6   38.46    2.93   0
   5   1   6   52.60    3.79   0
  -5  -1  -6   56.46    2.43   0
   5  -1   6   47.16    4.59   0
  -5   1  -6   53.45    2.36   0
   5  -1   6   52.01    2.30   0
   5   1   6   52.67    3.00   0
  -5  -1  -6   53.59    3.45   0
   6   1   6    2.62    4.04   0
  -6  -1  -6    5.44    2.77   0
  -6   1  -6    1.67    2.01   0
  -6  -1  -6    2.23    3.35   0
   6  -1   6    2.34    2.75   0
   6   1   6    2.72    2.76   0
  -7  -1  -6   28.64    2.25   0
   7   1   6   24.66    3.07   0
   7  -1   6   23.10    3.02   0
  -7   1  -6   27.24    3.01   0
   8  -1   6   16.40    2.26   0
   8   1   6   18.58    3.21   0
  -8   1  -6   19.01    2.35   0
  -8  -1  -6   19.84    3.21   0
   9  -1   6   49.99    2.59   0
   9   1   6   52.33    3.47   0
  -9  -1  -6   51.50    2.67   0
  -9   1  -6   50.73    2.56   0
  10  -1   6    8.23    3.39   0
 -10  -1  -6   10.42    3.43   0
 -10   1  -6    9.42    3.48   0
 -14  -2   6  172.36    4.51   0
 -14  -2   6  182.51    4.83   0
 -14   2   6  166.92    5.08   0
 -14   2   6  181.13    4.07   0
 -14  -2   6  167.70    3.36   0
 -13   2   6   77.11    3.92   0
 -13  -2   6   76.66    2.67   0
 -13  -2   6   72.15    3.64   0
 -13  -2   6   75.52    3.05   0
 -13   2   6   76.45    2.69   0
 -12  -2   6   17.53    3.04   0
 -12   2   6   17.96    3.22   0
 -12  -2   6   18.03    3.21   0
  12  -2  -6   15.32    3.05   0
 -12   2   6   16.89    3.14   0
 -11   2   6   49.11    2.38   0
 -11  -2   6   46.01    2.32   0
 -11   2   6   47.11    3.42   0
  11  -2  -6   45.90    3.16   0
 -11  -2   6   54.33    2.58   0
 -10   2   6  116.07    3.32   0
  10  -2  -6  113.74    3.47   0
 -10  -2   6  117.31    2.64   0
 -10   2   6  116.18    3.00   0
 -10  -2   6  118.80    2.90   0
  -9   2   6   54.08    2.98   0
  -9   2   6   50.55    2.38   0
   9   2  -6   51.22    3.05   0
   9  -2  -6   50.44    3.04   0
  -9  -2   6   56.94    3.06   0
  -8  -2   6   69.18    3.07   0
  -8   2   6   61.77    2.94   0
   8  -2  -6   62.22    2.95   0
  -8   2   6   68.10    3.13   0
   8   2  -6   61.36    2.87   0
  -7  -2   6  331.99    3.85   0
  -7   2   6  321.30    3.65   0
   7   2  -6  319.29    4.12   0
   7  -2  -6  313.47    3.81   0
  -7   2   6  319.49    3.94   0
   6  -2  -6  601.33    5.33   0
  -6  -2   6  600.14    5.01   0
   6   2  -6  569.60    5.14   0
  -6   2   6  574.14    5.07   0
   5  -2  -6 1727.01    8.52   0
  -5  -2   6 1802.58    8.52   0
  -5   2   6 1686.23    8.29   0
   5   2  -6 1630.23    7.90   0
  -4  -2   6 2174.99    9.57   0
  -4  -2   6 2383.60    9.66   0
   4   2  -6 2265.04    9.30   0
  -4   2   6 2405.91   10.13   0
   4  -2  -6 2465.54   10.08   0
  -3  -2   6  101.79    2.58   0
   3   2  -6   97.96    3.06   0
  -3   2   6  101.56    2.68   0
   3  -2  -6  105.97    3.14   0
  -3  -2   6   97.69    2.72   0
   2   2  -6 2585.47   10.65   0
  -2  -2   6 2620.60   10.53   0
  -2   2   6 2528.72   10.36   0
  -2   2   6 2378.45   11.71   0
   2   2  -6 2417.34   10.41   0
   2  -2  -6 2638.74   10.58   0
  -2  -2   6 2537.17   10.68   0
  -1  -2   6 1020.87    6.91   0
   1   2  -6 1009.35    7.14   0
  -1   2   6  991.82    7.04   0
   1  -2  -6 1014.87    6.89   0
  -1  -2   6 1007.27    6.83   0
  -1   2   6  981.24    7.98   0
   1   2  -6  979.54    7.03   0
   0  -2   6   13.54    2.02   0
   0   2   6   15.39    2.72   0
   0   2  -6   16.64    2.57   0
   0  -2  -6   18.49    2.79   0
   0   2  -6   15.23    2.02   0
   0  -2   6   15.37    2.75   0
   0  -2  -6   14.59    2.74   0
   0   2   6   16.73    2.72   0
   1   2   6  415.05    4.75   0
  -1   2  -6  476.36    4.81   0
   1  -2   6  475.44    5.00   0
  -1  -2  -6  480.36    6.11   0
  -1   2  -6  445.19    5.10   0
   1   2   6  470.94    5.89   0
  -1  -2  -6  485.15    5.45   0
   1  -2   6  485.23    5.50   0
  -2   2  -6  680.69    5.76   0
   2  -2   6  628.58    5.42   0
  -2  -2  -6  673.13    6.94   0
  -2  -2  -6  647.74    6.40   0
   2  -2   6  660.76    6.76   0
   2   2   6  637.99    6.58   0
  -2   2  -6  601.17    6.15   0
   2   2   6  599.28    6.16   0
   3  -2   6  114.58    3.77   0
  -3   2  -6  114.98    3.72   0
  -3   2  -6  124.13    2.76   0
  -3  -2  -6  118.02    3.63   0
   3  -2   6  116.58    3.15   0
   3   2   6  106.92    3.44   0
   3   2   6  117.43    3.44   0
  -3  -2  -6  126.78    3.80   0
   4  -2   6  230.49    5.19   0
  -4  -2  -6  265.82    4.54   0
  -4   2  -6  257.05    3.98   0
   4   2   6  226.17    4.50   0
  -4  -2  -6  248.05    4.76   0
   4  -2   6  246.15    3.88   0
   4   2   6  226.53    3.77   0
   5  -2   6    2.02    3.75   0
   5  -2   6    1.45    3.91   0
   5  -2   6    0.19    2.61   0
  -5  -2  -6    2.80    2.73   0
   5   2   6    2.18    2.59   0
  -5   2  -6    0.21    2.65   0
   5   2   6    0.66    2.70   0
  -5  -2  -6    2.19    3.27   0
   6   2   6  342.93    4.78   0
  -6  -2  -6  357.51    7.00   0
   6   2   6  338.26    6.88   0
  -6  -2  -6  364.31    4.38   0
  -6   2  -6  376.42    4.49   0
   6  -2   6  339.31    3.74   0
   7   2   6  597.06    5.81   0
  -7  -2  -6  624.26    5.89   0
  -7  -2  -6  556.24   13.50   0
  -7   2  -6  641.14    5.38   0
   7  -2   6  616.12    5.19   0
   8  -2   6  419.98    4.17   0
   8   2   6  434.52    5.29   0
  -8  -2  -6  460.78    5.36   0
  -8   2  -6  453.61    4.33   0
   9  -2   6  133.16    3.73   0
   9   2   6  135.90    4.02   0
  -9   2  -6  133.48    3.08   0
  -9  -2  -6  139.06    4.07   0
  10  -2   6  209.69    4.30   0
 -10  -2  -6  223.55    4.49   0
 -10   2  -6  233.56    4.47   0
 -14  -3   6    7.20    3.57   0
 -14  -3   6    5.26    3.36   0
 -14   3   6    7.03    3.60   0
 -14  -3   6    5.72    3.53   0
 -14   3   6    5.67    2.51   0
 -13  -3   6   13.22    2.43   0
 -13  -3   6   14.24    3.20   0
  13  -3  -6   13.70    3.97   0
 -13  -3   6   16.53    3.41   0
 -13   3   6   13.63    2.56   0
 -13   3   6   13.71    2.34   0
 -12  -3   6   25.63    3.32   0
 -12  -3   6   24.30    2.43   0
  12  -3  -6   20.98    3.14   0
 -12   3   6   21.30    2.35   0
 -12   3   6   19.61    3.28   0
 -11   3   6  120.33    3.82   0
 -11  -3   6  126.52    2.85   0
  11  -3  -6  125.12    3.73   0
 -11  -3   6  134.28    3.74   0
 -11   3   6  123.94    2.78   0
 -10   3   6   21.79    2.89   0
 -10  -3   6   29.16    2.99   0
 -10   3   6   24.13    3.01   0
 -10  -3   6   27.40    3.01   0
  10  -3  -6   23.24    2.89   0
  -9   3   6  329.51    3.56   0
  -9  -3   6  353.32    4.43   0
  -9   3   6  333.43    4.11   0
   9  -3  -6  346.32    4.48   0
  -8   3   6  887.28    5.35   0
  -8   3   6  873.83    6.07   0
   8  -3  -6  878.10    5.96   0
  -8  -3   6  954.66    6.40   0
   8   3  -6  881.12    5.71   0
   7  -3  -6  615.37    5.35   0
  -7   3   6  601.51    5.05   0
  -7   3   6  586.15    5.38   0
  -7  -3   6  603.95    4.83   0
   7   3  -6  571.22    4.70   0
  -6   3   6   32.41    2.10   0
  -6   3   6   33.35    2.82   0
  -6  -3   6   33.42    2.76   0
   6  -3  -6   34.13    2.06   0
   6   3  -6   31.91    2.67   0
  -5   3   6   99.24    3.25   0
  -5  -3   6   98.89    3.24   0
  -5  -3   6  100.46    2.51   0
   5   3  -6   98.63    2.49   0
   5  -3  -6  102.73    3.21   0
   4   3  -6  445.49    4.67   0
  -4   3   6  456.35    4.92   0
  -4  -3   6  452.28    5.00   0
  -4  -3   6  454.69    4.39   0
   4  -3  -6  475.22    4.88   0
  -3  -3   6  357.98    4.23   0
   3   3  -6  359.34    4.36   0
  -3   3   6  347.28    4.12   0
  -3  -3   6  364.45    4.01   0
   3   3  -6  337.04    4.12   0
   3  -3  -6  358.75    4.05   0
   2   3  -6  405.43    4.79   0
  -2   3   6  405.02    4.77   0
  -2  -3   6  436.58    4.90   0
  -2  -3   6  426.63    4.78   0
   2  -3  -6  429.15    4.88   0
   2   3  -6  392.65    4.27   0
  -1   3   6  232.26    3.55   0
   1   3  -6  244.27    4.06   0
   1  -3  -6  257.71    4.14   0
   1   3  -6  254.01    4.09   0
  -1  -3   6  261.53    3.66   0
  -1   3   6  234.30    4.37   0
  -1  -3   6  256.51    4.17   0
   0   3   6 1059.32    7.31   0
   0   3  -6 1124.37    6.84   0
   0   3  -6 1092.85    7.46   0
   0  -3   6 1161.77    7.67   0
   0  -3  -6 1110.68    7.26   0
   0   3   6 1151.31    9.55   0
   0  -3   6 1119.03    6.75   0
  -1   3  -6  523.46    5.69   0
   1  -3   6  556.51    5.77   0
   1  -3   6  528.11    4.73   0
  -1  -3  -6  540.12    5.54   0
  -1   3  -6  581.31    5.31   0
   1   3   6  512.18    6.59   0
  -1  -3  -6  514.46    6.76   0
   1   3   6  488.18    4.92   0
   2  -3   6  536.39    5.69   0
   2  -3   6  530.76    4.62   0
  -2  -3  -6  561.25    6.90   0
  -2   3  -6  541.36    6.07   0
  -2  -3  -6  530.11    5.33   0
   2   3   6  532.17    6.49   0
   2   3   6  503.68    5.45   0
  -2   3  -6  586.89    5.23   0
  -3  -3  -6 1195.46    9.08   0
  -3  -3  -6 1146.67    8.18   0
   3   3   6 1039.53    7.73   0
   3  -3   6 1176.88    9.05   0
   3  -3   6 1124.14    6.60   0
   3   3   6 1112.40    8.71   0
  -3   3  -6 1233.79    7.01   0
   4  -3   6  602.11    7.80   0
  -4  -3  -6  619.47    6.53   0
   4   3   6  542.61    5.99   0
  -4  -3  -6  601.89    6.41   0
  -4   3  -6  611.80    4.79   0
   4  -3   6  575.05    4.96   0
   4   3   6  580.17    6.28   0
  -5  -3  -6  527.34    6.47   0
   5   3   6  515.49    5.85   0
   5  -3   6  489.56    9.23   0
   5  -3   6  518.26    9.34   0
   5   3   6  489.52    6.17   0
  -5  -3  -6  566.49    6.14   0
  -5   3  -6  575.93    5.01   0
   5  -3   6  512.86    4.74   0
   6   3   6    1.41    2.84   0
   6   3   6    2.59    3.44   0
  -6  -3  -6    1.58    2.88   0
  -6   3  -6    1.05    2.81   0
  -6  -3  -6    1.57    3.47   0
   6  -3   6    3.18    2.73   0
   7   3   6   42.30    3.30   0
  -7  -3  -6   44.54    4.34   0
  -7  -3  -6   42.30    3.31   0
  -7   3  -6   45.06    3.25   0
   7  -3   6   40.21    2.37   0
   8   3   6    3.14    3.17   0
  -8   3  -6    2.22    2.25   0
  -8  -3  -6    1.82    2.17   0
   8  -3   6    4.68    2.20   0
   9  -3   6  251.28    3.68   0
  -9  -3  -6  287.60    5.00   0
  -9   3  -6  269.83    3.66   0
  10  -3   6  114.81    3.88   0
 -10  -3  -6  114.06    4.17   0
 -10   3  -6  111.68    3.93   0
 -13  -4   6  256.21    3.73   0
  13  -4  -6  238.23    5.07   0
 -13  -4   6  243.77    4.70   0
 -13   4   6  250.59    5.23   0
 -13  -4   6  268.40    4.98   0
 -13   4   6  241.79    3.45   0
 -12  -4   6  314.85    3.80   0
  12  -4  -6  308.14    4.91   0
 -12  -4   6  313.69    4.72   0
 -12   4   6  306.20    5.04   0
 -12  -4   6  344.42    4.94   0
 -12   4   6  321.05    4.35   0
 -11  -4   6  346.29    4.22   0
 -11  -4   6  315.06    3.77   0
  11  -4  -6  324.43    4.74   0
 -11   4   6  316.43    4.92   0
 -11   4   6  341.96    4.21   0
 -10   4   6   34.28    3.03   0
  10  -4  -6   37.09    2.35   0
 -10   4   6   34.58    3.13   0
 -10  -4   6   37.46    2.29   0
  -9   4   6  103.65    2.56   0
  -9   4   6  106.68    3.35   0
   9  -4  -6  106.46    3.29   0
  -9  -4   6  116.75    3.41   0
   8  -4  -6   71.92    2.46   0
  -8   4   6   68.92    2.35   0
  -8   4   6   63.98    3.06   0
  -8  -4   6   71.75    3.01   0
  -7  -4   6  792.38    5.68   0
  -7   4   6  782.03    5.65   0
  -7   4   6  747.35    5.86   0
   7  -4  -6  779.35    5.88   0
  -6   4   6 1664.67    7.78   0
  -6   4   6 1622.91    7.89   0
  -6  -4   6 1612.47    7.86   0
  -6  -4   6 1701.87    7.71   0
   6  -4  -6 1676.39    7.86   0
  -5   4   6 2599.54   10.04   0
  -5   4   6 2681.73   10.28   0
  -5  -4   6 2611.36    9.97   0
   5  -4  -6 2770.46   10.29   0
   5   4  -6 2677.02    9.52   0
  -5  -4   6 2845.87   10.12   0
   4   4  -6 3664.51   11.46   0
  -4   4   6 3477.66   11.41   0
  -4  -4   6 3573.36   11.92   0
   4  -4  -6 3764.52   11.94   0
  -4  -4   6 3644.64   11.24   0
  -3   4   6 1691.86    8.29   0
   3   4  -6 1610.76    8.16   0
   3   4  -6 1663.89    7.92   0
  -3  -4   6 1690.54    8.22   0
  -3  -4   6 1754.89    8.22   0
   3  -4  -6 1704.49    8.10   0
  -2   4   6  784.55    5.72   0
  -2  -4   6  858.96    5.95   0
   2   4  -6  834.67    6.24   0
   2  -4  -6  831.72    6.11   0
   2   4  -6  805.53    5.73   0
  -2  -4   6  828.14    5.80   0
   1   4  -6  773.03    5.89   0
   1  -4  -6  776.57    5.75   0
  -1   4   6  755.66    7.97   0
   1   4  -6  828.99    6.17   0
  -1  -4   6  794.41    5.94   0
  -1  -4   6  812.74    5.81   0
  -1   4   6  731.81    5.56   0
   0   4   6  614.18    5.54   0
   0   4   6  654.64    8.04   0
   0   4  -6  607.99    5.45   0
   0  -4   6  668.60    5.45   0
   0  -4  -6  612.66    5.26   0
   0   4  -6  659.07    5.52   0
   0  -4   6  624.87    5.44   0
  -1   4  -6  393.69    4.46   0
  -1  -4  -6  360.44    4.28   0
   1  -4   6  356.10    4.39   0
   1   4   6  361.23    6.18   0
   1  -4   6  368.04    4.25   0
   1   4   6  350.24    4.51   0
  -2   4  -6    4.02    1.95   0
  -2  -4  -6    1.79    2.43   0
   2  -4   6    3.19    1.86   0
   2  -4   6   -0.75    2.52   0
   2   4   6    2.30    2.48   0
   2   4   6    0.25    3.03   0
  -2  -4  -6    0.79    3.23   0
   3  -4   6  285.96    4.79   0
   3   4   6  258.64    4.34   0
  -3   4  -6  305.07    4.18   0
  -3  -4  -6  279.18    4.53   0
   3  -4   6  274.16    3.96   0
  -3  -4  -6  288.98    5.46   0
   3   4   6  271.86    5.25   0
   4  -4   6  569.25    7.07   0
   4   4   6  541.00    5.78   0
   4  -4   6  594.83    7.13   0
  -4   4  -6  614.52    4.67   0
  -4  -4  -6  582.41    6.09   0
   4  -4   6  571.86    4.87   0
  -4  -4  -6  633.10    7.53   0
   4   4   6  572.20    6.84   0
   5  -4   6  203.30    5.89   0
   5   4   6  195.61    4.22   0
   5   4   6  206.78    4.95   0
   5  -4   6  201.68    5.83   0
  -5  -4  -6  209.41    4.41   0
  -5  -4  -6  218.87    4.66   0
   5  -4   6  198.01    3.51   0
  -5   4  -6  220.76    3.74   0
   6   4   6  670.84    6.88   0
  -6  -4  -6  720.04    7.03   0
   6   4   6  628.53    7.29   0
  -6  -4  -6  687.45    7.66   0
  -6   4  -6  689.59    4.85   0
   6  -4   6  659.51    5.10   0
   7   4   6  701.07    8.00   0
  -7  -4  -6  786.36    8.84   0
  -7  -4  -6  821.09    7.36   0
  -7   4  -6  778.55    5.24   0
   7  -4   6  748.40    5.47   0
  -8  -4  -6  671.39   10.56   0
  -8  -4  -6  709.44    6.83   0
  -8   4  -6  718.70    5.53   0
   8  -4   6  632.65    5.25   0
   9  -4   6  698.89    5.59   0
  -9  -4  -6  660.60    6.30   0
  -9   4  -6  725.11    5.81   0
 -10  -4  -6  213.89    4.86   0
 -10   4  -6  190.21    3.59   0
 -13  -5   6   36.25    3.55   0
 -13  -5   6   33.99    3.36   0
  13  -5  -6   29.67    3.55   0
 -13   5   6   31.94    3.62   0
 -13  -5   6   33.62    2.66   0
 -13   5   6   33.26    3.44   0
 -12  -5   6   17.83    2.41   0
 -12  -5   6   19.86    3.29   0
 -12  -5   6   18.23    3.14   0
 -12   5   6   15.98    3.28   0
 -12   5   6   16.66    3.25   0
  12  -5  -6   14.24    3.21   0
 -11  -5   6    3.87    2.13   0
 -11  -5   6    0.90    2.94   0
 -11  -5   6   -1.49    3.00   0
  11  -5  -6    0.06    2.96   0
 -11   5   6    1.39    3.03   0
 -11   5   6    0.54    2.18   0
  10  -5  -6    0.11    2.87   0
 -10   5   6    0.08    2.86   0
 -10  -5   6    1.98    2.91   0
 -10   5   6    2.98    2.93   0
  -9   5   6    3.13    2.83   0
   9  -5  -6    2.89    2.73   0
  -9  -5   6    3.61    1.96   0
  -9   5   6    3.05    2.05   0
  -8   5   6   33.90    2.14   0
  -8  -5   6   35.95    2.21   0
  -8  -5   6   36.15    2.75   0
   8  -5  -6   35.41    2.85   0
  -8   5   6   36.43    3.00   0
  -7   5   6   28.03    2.07   0
  -7  -5   6   29.69    2.97   0
   7  -5  -6   28.15    2.77   0
  -7  -5   6   25.48    2.06   0
  -7   5   6   27.20    2.10   0
  -6   5   6    7.43    2.61   0
  -6   5   6   10.60    1.94   0
   6  -5  -6    7.63    2.57   0
  -6  -5   6    9.32    2.03   0
  -6  -5   6    9.19    2.59   0
  -5   5   6  111.77    2.77   0
  -5  -5   6  116.69    3.18   0
  -5  -5   6  109.04    2.78   0
   5  -5  -6  109.79    2.68   0
  -5   5   6  105.90    2.65   0
  -4   5   6  149.30    3.65   0
  -4  -5   6  145.96    3.22   0
   4  -5  -6  138.49    3.32   0
  -4  -5   6  144.60    3.55   0
  -4   5   6  137.63    3.35   0
  -3   5   6   47.41    2.99   0
  -3  -5   6   48.36    2.68   0
   3  -5  -6   46.67    2.09   0
  -3  -5   6   50.70    2.87   0
   3   5  -6   44.67    2.91   0
  -3   5   6   45.71    2.09   0
  -2  -5   6  342.79    4.20   0
   2  -5  -6  326.00    4.16   0
   2   5  -6  316.94    3.85   0
  -2  -5   6  335.40    3.90   0
  -2   5   6  323.11    4.11   0
  -1  -5   6 1379.40    7.42   0
   1   5  -6 1380.93    7.15   0
   1  -5  -6 1361.98    7.16   0
  -1  -5   6 1455.08    7.56   0
  -1   5   6 1310.66   10.52   0
  -1   5   6 1318.44    7.28   0
   0  -5   6    5.62    2.55   0
   0  -5  -6    6.40    1.74   0
   0   5  -6    6.66    1.85   0
   0   5   6    6.57    2.77   0
   0  -5   6    4.79    1.78   0
   0   5   6    4.66    2.46   0
  -1  -5  -6   19.42    1.95   0
   1  -5   6   17.77    2.60   0
  -1   5  -6   17.72    2.01   0
   1   5   6   16.24    3.34   0
   1   5   6   14.25    2.55   0
   1  -5   6   14.87    1.90   0
  -2  -5  -6  247.63    3.57   0
  -2   5  -6  267.51    3.92   0
   2   5   6  235.27    3.46   0
   2  -5   6  249.31    4.33   0
   2  -5   6  262.06    3.80   0
   2   5   6  243.81    6.43   0
   3   5   6  374.61    7.42   0
  -3   5  -6  415.14    4.42   0
   3  -5   6  367.40    5.13   0
  -3  -5  -6  384.79    4.81   0
  -3  -5  -6  382.80    7.69   0
   3   5   6  351.24    4.62   0
   3  -5   6  382.89    4.23   0
   3  -5   6  377.09    5.14   0
   4   5   6   54.52    3.52   0
   4  -5   6   59.34    3.77   0
  -4  -5  -6   55.40    3.08   0
   4  -5   6   57.16    3.34   0
  -4  -5  -6   60.44    3.65   0
   4   5   6   51.96    2.94   0
  -4   5  -6   65.09    3.09   0
   4  -5   6   58.49    2.25   0
   5  -5   6   84.38    4.34   0
   5  -5   6   81.11    2.39   0
   5   5   6   84.59    3.81   0
  -5  -5  -6   83.31    2.79   0
   5   5   6   77.45    3.30   0
  -5  -5  -6   91.04    4.34   0
  -5   5  -6   86.05    2.55   0
   5  -5   6   84.83    3.81   0
   6  -5   6  328.01   12.76   0
   6   5   6  344.87    5.25   0
  -6  -5  -6  405.68    5.98   0
  -6  -5  -6  377.76    5.49   0
  -6   5  -6  396.12    4.37   0
   6  -5   6  347.68   12.60   0
   6  -5   6  379.20    4.25   0
   7   5   6   70.95    3.84   0
  -7  -5  -6   76.79    3.70   0
  -7  -5  -6   85.02    4.48   0
  -7   5  -6   83.13    3.40   0
   7  -5   6   71.92    2.50   0
  -8   5  -6    5.70    2.26   0
  -8  -5  -6    7.16    3.92   0
  -8  -5  -6    7.11    3.91   0
   8  -5   6    6.07    3.09   0
   9  -5   6    8.53    3.24   0
  -9   5  -6    8.69    2.42   0
  -9  -5  -6    7.82    5.58   0
  -9  -5  -6    8.77    3.55   0
  -9  -5  -6    7.20    4.76   0
 -13  -6   6   80.50    3.83   0
 -13  -6   6   78.11    3.87   0
  13  -6  -6   68.12    3.82   0
 -13  -6   6   71.09    3.58   0
 -13   6   6   70.35    4.00   0
 -13   6   6   72.55    3.71   0
 -12  -6   6   64.44    2.78   0
 -12  -6   6   70.20    3.57   0
 -12  -6   6   60.45    2.62   0
  12  -6  -6   60.53    3.54   0
 -12   6   6   67.19    3.68   0
 -12   6   6   60.87    2.59   0
 -11  -6   6  252.99    4.25   0
 -11  -6   6  228.59    3.48   0
 -11  -6   6  270.45    4.32   0
  11  -6  -6  243.85    4.40   0
 -11   6   6  237.91    4.44   0
 -11   6   6  231.86    3.26   0
  10  -6  -6   10.25    3.09   0
 -10  -6   6    9.89    2.82   0
 -10  -6   6   11.06    2.94   0
 -10  -6   6    8.78    2.20   0
 -10   6   6    8.31    3.08   0
 -10   6   6   10.58    3.04   0
  -9  -6   6   54.52    2.48   0
  -9  -6   6   55.69    2.36   0
  -9   6   6   52.53    2.46   0
   9  -6  -6   59.24    3.15   0
  -9   6   6   52.36    2.38   0
  -8  -6   6  332.32    3.95   0
   8  -6  -6  343.91    3.91   0
  -8   6   6  328.23    3.90   0
  -8  -6   6  358.33    4.31   0
  -8   6   6  354.54    4.26   0
  -7   6   6  212.72    3.76   0
  -7  -6   6  210.19    3.16   0
   7  -6  -6  222.74    3.76   0
  -7  -6   6  218.81    3.93   0
  -7   6   6  201.76    3.21   0
  -6   6   6  554.83    4.75   0
  -6  -6   6  599.67    5.01   0
  -6  -6   6  580.88    5.41   0
   6  -6  -6  557.67    4.65   0
  -6   6   6  548.95    5.05   0
  -5   6   6 1581.93    8.08   0
   5  -6  -6 1568.71    7.70   0
  -5  -6   6 1575.60    7.81   0
  -5   6   6 1489.40    7.35   0
  -5  -6   6 1605.57    7.50   0
  -4   6   6  762.68    6.21   0
   4  -6  -6  731.27    5.22   0
  -4  -6   6  794.77    5.97   0
  -4  -6   6  767.93    5.49   0
  -4   6   6  723.22    5.16   0
  -3   6   6 1545.95    9.22   0
   3  -6  -6 1485.50    7.14   0
   3   6  -6 1425.73    7.39   0
  -3  -6   6 1565.03    7.62   0
  -3  -6   6 1551.47    7.49   0
  -3   6   6 1458.80    7.40   0
   2   6  -6  249.11    3.91   0
  -2   6   6  254.65    4.76   0
  -2  -6   6  250.80    3.34   0
   2  -6  -6  244.58    3.29   0
  -2  -6   6  270.87    3.96   0
  -2   6   6  245.85    3.73   0
  -1   6   6  457.80    6.65   0
   1  -6  -6  431.93    4.18   0
   1   6  -6  450.42    4.71   0
  -1  -6   6  461.96    4.77   0
  -1  -6   6  480.27    4.74   0
  -1   6   6  424.77    4.49   0
   0   6   6   53.22    4.13   0
   0   6   6   53.59    4.04   0
   0  -6  -6   50.79    2.20   0
   0  -6   6   51.89    2.81   0
   0   6  -6   54.86    2.89   0
   0  -6   6   53.52    2.16   0
   0   6   6   46.82    2.17   0
   1   6   6   60.06    5.80   0
   1   6   6   60.19    5.56   0
  -1  -6  -6   62.19    2.25   0
   1  -6   6   58.50    2.29   0
   1  -6   6   66.10    2.96   0
   1   6   6   56.84    2.76   0
  -1   6  -6   66.07    2.97   0
   1  -6   6   62.80    2.80   0
   2  -6   6   57.15    2.41   0
  -2  -6  -6   58.59    2.29   0
  -2   6  -6   67.45    2.39   0
   2  -6   6   56.90    3.09   0
   2   6   6   58.30    2.85   0
   2  -6   6   58.21    2.13   0
  -3  -6  -6   71.12    2.99   0
   3  -6   6   64.43    2.56   0
  -3   6  -6   70.56    2.40   0
   3  -6   6   69.10    2.91   0
   3  -6   6   69.66    3.19   0
   3   6   6   65.00    2.34   0
  -4  -6  -6   24.88    2.12   0
   4  -6   6   27.05    2.90   0
   4   6   6   22.77    2.79   0
  -4   6  -6   30.05    2.07   0
   4  -6   6   25.13    3.05   0
   4  -6   6   24.05    2.82   0
  -4  -6  -6   26.08    5.09   0
   5   6   6   54.06    3.10   0
   5  -6   6   59.28    3.41   0
  -5  -6  -6   59.04    2.53   0
   5  -6   6   54.06    2.28   0
   5  -6   6   57.03    3.39   0
  -5   6  -6   59.85    2.43   0
  -5  -6  -6   61.62    4.65   0
   6   6   6  270.39    4.74   0
  -6  -6  -6  292.53    4.95   0
  -6  -6  -6  317.22    6.64   0
  -6   6  -6  295.60    3.44   0
   6  -6   6  265.05    6.90   0
   6  -6   6  290.92    7.60   0
   6  -6   6  283.15    3.95   0
   7   6   6  478.91    6.08   0
  -7  -6  -6  533.37    6.36   0
  -7  -6  -6  556.53    7.42   0
  -7   6  -6  562.35    4.94   0
   7  -6   6  530.30    4.78   0
  -8  -6  -6   73.13    3.83   0
  -8   6  -6   72.49    2.57   0
  -8  -6  -6   71.24    3.97   0
   8  -6   6   64.06    2.48   0
   9  -6   6  263.68    4.20   0
  -9  -6  -6  180.22    5.43   0
  -9   6  -6  237.22    4.37   0
  -9  -6  -6  238.25    6.02   0
  -9  -6  -6  256.45    6.11   0
 -13  -7   6  125.92    4.08   0
 -13  -7   6  116.54    4.08   0
 -13  -7   6  103.67    3.91   0
 -13   7   6  108.65    4.22   0
 -13  -7   6  117.28    4.11   0
 -13   7   6  107.75    3.00   0
  13  -7  -6   97.45    4.09   0
 -12  -7   6  137.47    3.24   0
 -12  -7   6  130.54    3.18   0
 -12  -7   6  131.83    3.22   0
 -12  -7   6  138.17    3.30   0
 -12   7   6  138.71    4.14   0
  12  -7  -6  138.69    4.08   0
 -12   7   6  139.76    3.76   0
  11  -7  -6    2.22    2.17   0
 -11  -7   6    1.09    2.98   0
 -11  -7   6    1.11    3.11   0
 -11   7   6    2.00    3.06   0
 -11  -7   6    3.13    2.23   0
 -11   7   6   -0.29    3.13   0
 -10  -7   6  232.01    3.97   0
 -10  -7   6  234.31    3.48   0
 -10   7   6  223.99    4.23   0
 -10  -7   6  235.56    4.22   0
 -10   7   6  233.01    3.98   0
  10  -7  -6  235.62    4.21   0
  -9  -7   6   65.96    3.12   0
  -9  -7   6   67.02    2.51   0
  -9   7   6   65.94    3.30   0
   9  -7  -6   66.44    3.30   0
  -9  -7   6   69.02    3.22   0
  -9   7   6   68.35    3.26   0
  -8  -7   6  117.80    3.33   0
  -8  -7   6  123.76    3.32   0
  -8  -7   6  112.54    2.84   0
   8  -7  -6  116.17    3.43   0
  -8   7   6  114.21    3.45   0
  -8   7   6  123.16    3.41   0
  -7  -7   6  132.71    3.66   0
  -7  -7   6  135.50    3.29   0
   7  -7  -6  137.34    3.51   0
  -7   7   6  133.71    3.37   0
  -7   7   6  137.55    3.45   0
  -6  -7   6   25.59    2.93   0
   6  -7  -6   24.82    2.02   0
  -6  -7   6   24.28    2.77   0
  -6   7   6   22.62    2.77   0
  -6   7   6   25.83    2.10   0
  -5   7   6  206.39    3.73   0
   5  -7  -6  198.55    3.19   0
  -5  -7   6  204.72    3.58   0
  -5  -7   6  199.48    3.25   0
  -5   7   6  201.56    3.74   0
  -4   7   6  292.27    4.33   0
   4  -7  -6  291.49    3.95   0
  -4  -7   6  301.44    4.23   0
   4   7  -6  273.73    4.23   0
  -4  -7   6  289.19    3.38   0
  -4   7   6  280.50    3.92   0
  -3   7   6    1.05    2.65   0
   3  -7  -6    2.65    2.40   0
  -3  -7   6    1.99    1.90   0
   3   7  -6    1.32    2.75   0
  -3   7   6    1.81    1.71   0
  -3  -7   6    1.79    1.89   0
  -2  -7   6   42.43    2.79   0
  -2   7   6   40.63    3.01   0
   2  -7  -6   38.16    2.04   0
  -2  -7   6   40.77    2.22   0
   2   7  -6   42.10    3.01   0
  -2   7   6   37.65    2.06   0
  -1   7   6  238.94    5.15   0
   1  -7  -6  242.41    3.32   0
  -1  -7   6  230.00    3.29   0
   1   7  -6  244.29    3.42   0
  -1  -7   6  264.07    3.94   0
  -1   7   6  231.66    3.72   0
  -1  -7   6  242.20    3.34   0
   0  -7  -6  141.51    2.78   0
   0  -7   6  145.32    3.31   0
   0  -7   6  160.62    3.35   0
   0   7   6  140.95    3.28   0
   0   7   6  144.87    5.74   0
   0   7  -6  163.88    3.40   0
   0  -7   6  148.41    3.36   0
   0   7   6  144.34    5.59   0
  -1  -7  -6  195.04    3.20   0
   1  -7   6  184.86    3.59   0
  -1   7  -6  193.07    2.97   0
   1   7   6  177.77    3.53   0
   1  -7   6  191.36    3.65   0
   1  -7   6  197.83    3.45   0
  -2  -7  -6   42.67    2.09   0
  -2   7  -6   50.74    2.17   0
   2  -7   6   47.91    2.90   0
   2   7   6   41.82    2.06   0
   2  -7   6   46.97    2.90   0
   2  -7   6   40.80    2.04   0
   3  -7   6  248.78    4.31   0
  -3  -7  -6  250.00    3.99   0
   3  -7   6  241.20    4.31   0
   3   7   6  234.39    3.87   0
   3  -7   6  239.92    3.14   0
  -3   7  -6  270.23    3.87   0
  -4  -7  -6   15.36    2.80   0
   4   7   6   12.96    2.78   0
   4  -7   6   14.39    2.87   0
  -4   7  -6   12.45    2.83   0
   4  -7   6   12.00    2.82   0
   4  -7   6   11.61    1.94   0
  -5  -7  -6    2.44    2.87   0
   5  -7   6    3.58    2.83   0
   5   7   6    3.77    2.81   0
   5  -7   6    3.31    2.77   0
  -5   7  -6    6.37    2.91   0
   5  -7   6    2.52    1.93   0
  -6  -7  -6  314.98    4.25   0
   6   7   6  300.08    4.72   0
  -6  -7  -6  331.06   12.75   0
  -6   7  -6  329.28    3.70   0
   6  -7   6  291.85    5.96   0
   6  -7   6  313.46    3.57   0
   6  -7   6  331.69    6.64   0
   7   7   6  112.18    3.94   0
  -7  -7  -6  120.78    3.96   0
   7  -7   6  117.45    2.76   0
  -7   7  -6  125.85    2.82   0
  -7  -7  -6  125.10    6.70   0
  -8  -7  -6   64.57    5.44   0
  -8   7  -6   65.90    3.54   0
  -8  -7  -6   58.94    3.84   0
   8  -7   6   63.42    3.32   0
   9  -7   6    3.71    2.27   0
  -9  -7  -6    3.25    3.59   0
  -9  -7  -6    3.55    3.46   0
  -9   7  -6    8.26    3.36   0
 -12  -8   6   61.49    2.82   0
 -12  -8   6   60.81    2.70   0
  12  -8  -6   61.97    3.73   0
 -12   8   6   56.62    3.77   0
 -12  -8   6   63.98    2.81   0
 -12  -8   6   62.08    3.78   0
 -12   8   6   62.69    3.69   0
  11  -8  -6    1.03    2.25   0
 -11  -8   6    3.12    2.10   0
 -11  -8   6   -0.90    3.28   0
 -11   8   6    1.46    3.17   0
 -11  -8   6    3.01    3.12   0
 -11   8   6    1.22    3.23   0
 -10  -8   6    6.74    2.10   0
 -10  -8   6    6.43    3.14   0
 -10   8   6    6.17    3.05   0
  10  -8  -6    6.75    3.08   0
 -10  -8   6    6.41    2.21   0
 -10   8   6    3.94    3.21   0
  -9  -8   6    0.51    2.93   0
  -9  -8   6   -0.78    2.91   0
  -9  -8   6    4.12    3.10   0
   9  -8  -6   -0.00    2.89   0
  -9   8   6    0.51    2.95   0
  -9   8   6    1.20    2.09   0
  -8  -8   6   16.25    2.81   0
  -8  -8   6   17.03    2.85   0
  -8  -8   6   17.87    2.25   0
   8  -8  -6   15.26    2.11   0
  -8   8   6   15.78    2.93   0
  -8   8   6   17.11    2.22   0
  -7  -8   6   92.05    2.44   0
  -7  -8   6   87.24    2.44   0
  -7  -8   6   95.87    2.82   0
   7  -8  -6   87.73    3.20   0
  -7   8   6   85.68    3.18   0
  -7   8   6   89.04    2.51   0
  -6  -8   6   92.90    3.08   0
  -6   8   6   91.11    3.12   0
  -6  -8   6   99.74    3.29   0
  -6  -8   6   97.99    3.14   0
  -6   8   6   92.95    2.55   0
   6  -8  -6   95.60    2.50   0
  -5  -8   6  460.05    3.98   0
   5  -8  -6  478.45    4.25   0
  -5  -8   6  502.89    4.51   0
  -5   8   6  480.96    4.68   0
  -5  -8   6  477.94    4.02   0
  -5   8   6  485.42    4.60   0
  -4  -8   6   82.18    2.89   0
  -4  -8   6   74.91    2.21   0
   4  -8  -6   77.88    2.98   0
  -4  -8   6   84.69    2.51   0
  -4   8   6   75.86    3.01   0
  -4   8   6   78.76    2.51   0
   4   8  -6   76.32    2.58   0
   3  -8  -6    3.70    1.83   0
  -3  -8   6    5.61    1.76   0
  -3  -8   6    6.63    2.52   0
   3   8  -6    4.32    2.75   0
  -3  -8   6    4.77    1.94   0
  -3   8   6    3.19    2.49   0
  -3   8   6    5.74    2.72   0
   2  -8  -6   16.90    2.51   0
  -2  -8   6   10.05    1.82   0
  -2  -8   6   10.78    1.87   0
  -2  -8   6   11.36    1.99   0
   2   8  -6   11.44    2.05   0
  -2   8   6   10.37    2.46   0
  -2   8   6   13.07    2.68   0
   1  -8  -6  101.25    3.12   0
   1   8  -6  104.67    2.67   0
  -1  -8   6   98.23    2.54   0
  -1  -8   6   95.03    2.53   0
  -1  -8   6  110.93    3.23   0
  -1   8   6   95.65    2.50   0
  -1   8   6  100.40    4.23   0
   0  -8  -6    8.80    2.61   0
   0  -8   6   10.75    2.53   0
   0  -8   6    8.50    2.55   0
   0   8  -6   10.36    2.79   0
   0   8   6    7.35    1.83   0
   0  -8   6    7.62    1.81   0
   0   8   6    7.62    3.93   0
   0   8   6    9.43    4.25   0
  -1  -8  -6   54.75    2.89   0
   1  -8   6   49.14    2.85   0
  -1   8  -6   53.48    2.29   0
   1   8   6   48.82    2.83   0
   1  -8   6   50.77    2.17   0
   1  -8   6   50.86    2.25   0
  -2  -8  -6   38.20    2.77   0
   2  -8   6   35.79    2.19   0
   2   8   6   30.23    2.71   0
  -2   8  -6   38.36    2.16   0
   2  -8   6   39.60    2.90   0
   2  -8   6   37.26    2.79   0
  -3  -8  -6  438.45    4.30   0
   3  -8   6  445.58    5.18   0
  -3   8  -6  470.12    4.54   0
   3  -8   6  457.05    5.37   0
   3  -8   6  440.22    3.90   0
   3   8   6  423.60    4.63   0
   4  -8   6  257.47    4.46   0
   4  -8   6  262.27    4.50   0
  -4  -8  -6  254.53    3.55   0
   4   8   6  231.52    3.97   0
  -4   8  -6  277.53    3.89   0
   4  -8   6  257.35    3.82   0
  -5  -8  -6    8.89    2.85   0
  -5   8  -6    8.68    2.98   0
   5  -8   6    7.85    2.98   0
   5  -8   6    6.90    2.91   0
   5  -8   6    8.84    2.83   0
   5   8   6    8.06    2.89   0
  -6  -8  -6   21.21    2.26   0
   6   8   6   19.99    3.19   0
   6  -8   6   23.63    3.94   0
  -6   8  -6   19.17    2.36   0
   6  -8   6   22.37    3.35   0
   6  -8   6   19.72    2.29   0
   7  -8   6    7.75    4.66   0
   7   8   6    8.08    3.25   0
  -7  -8  -6    9.71    3.11   0
   7  -8   6    8.75    2.22   0
   7  -8   6    7.66    4.64   0
  -7   8  -6    9.62    2.30   0
  -8  -8  -6    0.47    3.36   0
  -8   8  -6    1.04    3.34   0
   8  -8   6    2.42    2.26   0
 -12  -9   6  131.85    4.12   0
  12  -9  -6  135.39    4.17   0
 -12  -9   6  122.63    3.13   0
 -12   9   6  130.40    4.16   0
 -12  -9   6  118.84    3.17   0
 -12  -9   6  128.57    3.35   0
 -12   9   6  122.69    3.06   0
 -11  -9   6  333.08    4.03   0
 -11  -9   6  371.80    5.00   0
 -11   9   6  357.72    5.05   0
 -11  -9   6  359.58    4.16   0
 -11   9   6  340.70    3.84   0
  11  -9  -6  372.57    5.06   0
 -10  -9   6   49.56    3.30   0
 -10  -9   6   44.89    3.37   0
 -10  -9   6   48.68    3.17   0
 -10   9   6   43.19    2.49   0
  10  -9  -6   49.54    2.52   0
 -10   9   6   47.80    3.34   0
  -9  -9   6  355.92    4.39   0
  -9  -9   6  324.56    3.68   0
   9  -9  -6  359.42    4.64   0
  -9  -9   6  352.97    4.70   0
  -9   9   6  335.87    4.55   0
  -9   9   6  331.55    3.69   0
  -8  -9   6 1664.90    7.14   0
  -8  -9   6 1742.40    8.06   0
   8  -9  -6 1722.65    7.72   0
  -8  -9   6 1778.92    7.69   0
  -8   9   6 1671.57    8.02   0
  -8   9   6 1695.14    7.23   0
  -7  -9   6  750.36    4.89   0
   7  -9  -6  797.90    5.74   0
  -7  -9   6  779.99    5.02   0
  -7   9   6  769.48    5.66   0
  -7   9   6  767.34    5.15   0
  -7  -9   6  799.92    5.56   0
  -6  -9   6  258.21    3.75   0
  -6  -9   6  241.78    3.13   0
   6  -9  -6  267.97    3.89   0
  -6   9   6  244.99    3.29   0
  -6  -9   6  273.30    4.20   0
  -6   9   6  255.69    4.02   0
  -5  -9   6   71.61    2.33   0
   5  -9  -6   70.31    3.01   0
  -5  -9   6   72.68    2.96   0
  -5  -9   6   79.90    3.25   0
  -5   9   6   69.13    2.30   0
  -5   9   6   72.42    3.21   0
   4  -9  -6  116.45    3.17   0
  -4  -9   6  110.79    2.44   0
  -4  -9   6  110.55    2.46   0
  -4  -9   6  121.17    2.75   0
  -4   9   6  105.97    2.53   0
  -4   9   6  105.71    2.77   0
   4   9  -6  110.49    2.75   0
   3  -9  -6  164.46    3.33   0
  -3  -9   6  166.48    3.35   0
   3   9  -6  155.52    2.99   0
  -3  -9   6  177.32    3.05   0
  -3  -9   6  166.83    2.78   0
  -3   9   6  154.31    2.76   0
  -3   9   6  158.63    3.29   0
   2  -9  -6  286.04    3.75   0
  -2  -9   6  270.63    3.80   0
   2   9  -6  285.90    4.08   0
  -2  -9   6  286.71    3.51   0
  -2   9   6  255.52    3.15   0
  -2  -9   6  285.31    3.92   0
  -2   9   6  271.90    4.77   0
   1  -9  -6   92.20    2.39   0
  -1  -9   6   90.63    3.08   0
   1   9  -6   93.16    2.53   0
  -1   9   6   88.33    2.33   0
  -1  -9   6   92.59    3.16   0
  -1   9   6   91.12    4.25   0
  -1  -9   6   95.99    3.08   0
   0  -9  -6  627.65    5.10   0
   0   9   6  586.24   13.86   0
   0  -9   6  603.24    5.10   0
   0   9  -6  614.74    4.71   0
   0   9   6  591.42   14.00   0
   0   9   6  559.10    4.41   0
   0  -9   6  626.74    5.18   0
   0  -9   6  637.86    5.09   0
  -1  -9  -6   42.09    2.21   0
   1   9   6   40.80    2.07   0
   1  -9   6   44.42    2.11   0
   1  -9   6   42.14    2.34   0
  -1   9  -6   43.74    2.15   0
   1  -9   6   42.73    3.00   0
  -2  -9  -6   33.17    2.09   0
   2  -9   6   41.08    2.92   0
   2   9   6   34.99    2.09   0
  -2   9  -6   37.81    3.01   0
   2  -9   6   42.36    2.81   0
   2  -9   6   36.34    2.21   0
  -3  -9  -6   66.84    2.42   0
  -3   9  -6   71.42    3.12   0
   3  -9   6   66.60    3.18   0
   3   9   6   59.23    2.39   0
   3  -9   6   68.04    3.20   0
   3  -9   6   65.65    2.26   0
   4   9   6  418.93    4.20   0
  -4  -9  -6  450.28    4.33   0
   4  -9   6  456.92    5.39   0
  -4   9  -6  494.44    4.60   0
   4  -9   6  457.02    3.94   0
   4  -9   6  463.51    5.39   0
  -5  -9  -6  399.61    4.78   0
   5  -9   6  364.12    5.42   0
   5  -9   6  381.53    3.73   0
  -5   9  -6  414.67    4.48   0
   5   9   6  363.12    4.64   0
   5  -9   6  372.63    5.42   0
  -6  -9  -6    0.59    2.99   0
   6   9   6    0.48    3.07   0
   6  -9   6    1.40    3.06   0
  -6   9  -6    1.19    2.14   0
   6  -9   6    1.94    3.12   0
   6  -9   6    2.55    2.89   0
   7  -9   6    7.03    4.66   0
  -7  -9  -6    9.96    3.21   0
   7   9   6    6.13    2.43   0
  -7   9  -6    8.40    2.31   0
   7  -9   6    7.10    2.25   0
   7  -9   6    7.10    4.01   0
  -8  -9  -6   35.36    3.72   0
  -8   9  -6   40.98    3.41   0
   8  -9   6   35.71    2.47   0
 -12 -10   6    8.83    3.50   0
 -12 -10   6   13.47    3.36   0
 -12  10   6    9.51    3.56   0
 -12 -10   6   11.82    3.55   0
 -12 -10   6   11.78    2.46   0
  11 -10  -6   12.99    3.35   0
 -11 -10   6   11.23    2.28   0
 -11  10   6   13.42    3.37   0
 -11 -10   6   10.54    3.38   0
 -11  10   6   11.98    2.44   0
 -11 -10   6   13.13    2.37   0
 -10 -10   6    9.35    3.22   0
 -10 -10   6    8.73    3.11   0
 -10  10   6    9.38    2.34   0
  10 -10  -6    7.43    2.30   0
 -10  10   6    7.05    3.33   0
 -10 -10   6    9.09    3.29   0
  -9 -10   6    7.20    2.35   0
  -9 -10   6   13.49    2.93   0
  -9 -10   6   12.54    3.12   0
   9 -10  -6    9.26    3.13   0
  -9  10   6   10.28    2.23   0
  -9  10   6   10.90    3.22   0
  -8  10   6    0.99    2.21   0
  -8 -10   6    3.62    2.85   0
  -8 -10   6    0.95    2.21   0
  -8  10   6    1.95    2.94   0
  -8 -10   6    0.87    2.89   0
   8 -10  -6    2.05    3.04   0
  -7 -10   6    0.92    2.92   0
   7 -10  -6    1.23    2.05   0
  -7 -10   6    0.19    2.09   0
  -7  10   6   -0.44    2.92   0
  -7  10   6    2.18    2.96   0
  -7 -10   6   -0.23    2.03   0
  -6 -10   6    1.09    1.99   0
  -6  10   6    1.02    2.66   0
  -6 -10   6    0.21    2.71   0
   6 -10  -6    2.70    2.73   0
  -6 -10   6    3.73    2.89   0
  -6  10   6    0.86    2.06   0
  -5 -10   6   26.90    2.00   0
   5 -10  -6   26.16    2.08   0
  -5 -10   6   30.98    2.03   0
  -5 -10   6   32.92    2.29   0
  -5  10   6   31.20    2.81   0
  -5  10   6   32.48    3.06   0
   4 -10  -6   83.11    3.06   0
   4  10  -6   81.00    2.62   0
  -4 -10   6   89.24    3.24   0
  -4 -10   6   81.94    2.34   0
  -4  10   6   78.51    2.46   0
  -4  10   6   75.60    2.63   0
  -4 -10   6   86.32    3.05   0
  -3 -10   6   15.15    2.69   0
   3 -10  -6   17.84    1.97   0
  -3 -10   6   16.65    2.65   0
   3  10  -6   18.44    2.87   0
  -3  10   6   15.19    1.96   0
  -3  10   6   17.86    2.08   0
  -3 -10   6   17.02    2.08   0
   2 -10  -6  561.38    4.35   0
  -2 -10   6  581.33    4.45   0
  -2 -10   6  617.33    5.07   0
  -2 -10   6  557.60    4.37   0
  -2  10   6  534.74    4.62   0
  -2  10   6  550.93    6.35   0
   2  10  -6  589.68    5.16   0
   1 -10  -6    1.45    2.70   0
  -1 -10   6    1.94    1.92   0
  -1 -10   6    3.39    2.64   0
   1  10  -6    0.41    2.06   0
  -1  10   6    2.19    1.89   0
  -1 -10   6    2.52    1.90   0
  -1  10   6    3.01    2.68   0
   0 -10  -6  524.32    4.75   0
   0 -10   6  528.73    4.85   0
   0  10   6  485.78    4.63   0
   0 -10   6  514.08    4.31   0
   0  10  -6  557.93    4.98   0
   0 -10   6  550.03    4.91   0
  -1 -10  -6   16.22    2.77   0
  -1  10  -6   16.52    2.92   0
   1 -10   6   15.35    2.08   0
   1 -10   6   14.82    2.02   0
   1  10   6   15.18    2.68   0
   1 -10   6   15.91    2.88   0
  -2 -10  -6  143.79    3.50   0
   2 -10   6  141.52    3.61   0
   2 -10   6  141.50    3.58   0
   2  10   6  126.35    2.81   0
  -2  10  -6  151.65    3.54   0
   2 -10   6  144.87    2.73   0
  -3 -10  -6   55.09    2.39   0
   3  10   6   51.17    3.21   0
   3 -10   6   58.54    2.29   0
  -3  10  -6   59.59    3.02   0
   3 -10   6   56.37    3.14   0
   3 -10   6   56.93    2.60   0
  -4 -10  -6   37.11    3.14   0
   4 -10   6   35.32    3.20   0
   4  10   6   32.70    2.31   0
  -4  10  -6   40.21    2.31   0
   4 -10   6   35.33    3.25   0
   4 -10   6   35.23    2.20   0
  -5 -10  -6   67.65    2.61   0
   5 -10   6   67.65    3.62   0
   5  10   6   61.72    2.61   0
   5 -10   6   62.27    2.82   0
  -5  10  -6   67.46    2.55   0
   5 -10   6   74.44    3.20   0
  -6 -10  -6    7.64    2.31   0
   6  10   6    8.18    3.26   0
  -6  10  -6    5.15    3.25   0
   6 -10   6    7.37    3.24   0
   6 -10   6    7.85    3.25   0
   6 -10   6    7.37    2.16   0
  -7 -10  -6   57.70    3.61   0
   7  10   6   48.18    3.62   0
   7 -10   6   57.70    4.48   0
  -7  10  -6   62.60    3.61   0
   7 -10   6   51.98    4.47   0
   7 -10   6   60.26    2.54   0
  -8 -10  -6   16.82    3.55   0
  -8  10  -6   14.45    2.60   0
   8 -10   6   21.26    3.38   0
 -11 -11   6  305.21    4.73   0
 -11 -11   6  313.02    4.60   0
 -11 -11   6  324.90    5.07   0
 -11  11   6  304.49    4.89   0
  11 -11  -6  309.07    4.88   0
 -11  11   6  277.50    3.93   0
 -10 -11   6  325.28    3.93   0
 -10 -11   6  367.45    5.04   0
  10 -11  -6  341.70    4.84   0
 -10  11   6  308.77    4.14   0
 -10 -11   6  333.16    4.45   0
 -10  11   6  322.57    3.87   0
  -9  11   6  474.79    4.58   0
  -9 -11   6  501.10    4.32   0
  -9 -11   6  523.61    5.00   0
   9 -11  -6  523.88    5.31   0
  -9 -11   6  529.87    4.85   0
  -9  11   6  484.94    4.37   0
  -8 -11   6  960.27    5.53   0
   8 -11  -6 1015.30    6.56   0
  -8 -11   6 1000.04    6.41   0
  -8  11   6  941.80    6.31   0
  -8 -11   6  939.17    5.49   0
  -8  11   6  973.30    6.19   0
  -7 -11   6  389.97    4.37   0
  -7 -11   6  372.04    3.72   0
   7 -11  -6  399.35    4.57   0
  -7 -11   6  408.30    4.89   0
  -7  11   6  370.04    4.49   0
  -7  11   6  386.43    4.56   0
   6 -11  -6  427.75    4.59   0
  -6 -11   6  393.01    3.80   0
  -6 -11   6  425.11    4.34   0
  -6 -11   6  423.17    4.32   0
  -6  11   6  386.46    3.89   0
  -6  11   6  416.72    4.77   0
   5 -11  -6  136.03    3.33   0
  -5 -11   6  135.20    2.68   0
  -5 -11   6  153.09    3.64   0
  -5  11   6  139.85    3.46   0
  -5 -11   6  135.54    2.73   0
  -5  11   6  134.78    3.67   0
  -4 -11   6    5.19    2.69   0
   4 -11  -6    5.34    2.73   0
   4  11  -6    7.91    2.17   0
  -4 -11   6    4.65    1.91   0
  -4  11   6    4.78    1.99   0
  -4 -11   6    4.32    2.86   0
  -4  11   6    4.83    2.02   0
   3 -11  -6   79.86    2.34   0
  -3 -11   6   78.68    3.08   0
   3  11  -6   78.56    3.32   0
  -3  11   6   86.32    2.45   0
  -3 -11   6   91.76    3.12   0
  -3  11   6   74.33    3.36   0
  -3 -11   6   80.08    3.06   0
   2 -11  -6  239.90    3.07   0
  -2 -11   6  238.39    3.23   0
  -2 -11   6  251.28    3.80   0
   2  11  -6  240.15    4.08   0
  -2 -11   6  259.14    3.81   0
  -2  11   6  239.17    3.75   0
  -2  11   6  228.11    4.60   0
   1 -11  -6  914.86    5.64   0
  -1 -11   6  864.61    5.25   0
  -1 -11   6  854.26    5.19   0
   1  11  -6  899.03    6.01   0
  -1  11   6  792.63    4.92   0
  -1 -11   6  897.86    5.45   0
  -1  11   6  881.82    9.47   0
   0 -11  -6 1503.82    7.03   0
   0 -11   6 1506.52    7.30   0
   0  11  -6 1490.03    6.81   0
   0  11   6 1399.70    6.77   0
   0 -11   6 1491.76    6.70   0
   0 -11   6 1388.77    6.61   0
  -1 -11  -6  493.00    4.14   0
   1 -11   6  477.51    4.30   0
   1 -11   6  505.00    4.94   0
   1  11   6  469.91    4.53   0
  -1  11  -6  531.50    4.92   0
   1 -11   6  496.16    4.19   0
  -2 -11  -6  873.42    5.69   0
   2  11   6  789.59    5.46   0
   2 -11   6  796.94    5.51   0
   2 -11   6  813.22    5.01   0
   2 -11   6  820.41    6.00   0
  -2  11  -6  861.27    5.69   0
  -3 -11  -6  695.24    4.95   0
   3  11   6  604.50    4.66   0
   3 -11   6  640.31    5.19   0
   3 -11   6  700.56    5.89   0
   3 -11   6  720.35    5.23   0
  -3  11  -6  742.63    5.46   0
  -4 -11  -6  952.52    6.22   0
   4  11   6  864.01    6.04   0
  -4  11  -6  943.61    5.45   0
   4 -11   6  882.25    6.27   0
   4 -11   6  930.10    5.30   0
   4 -11   6  915.45    6.82   0
  -5 -11  -6  574.62    4.91   0
   5  11   6  526.35    4.73   0
   5 -11   6  580.74    6.07   0
  -5  11  -6  610.06    4.53   0
   5 -11   6  561.47    5.53   0
   5 -11   6  603.28    5.02   0
   6 -11   6  142.45    4.37   0
  -6 -11  -6  150.17    3.21   0
   6  11   6  129.97    3.23   0
  -6  11  -6  165.32    3.81   0
   6 -11   6  143.65    4.34   0
   6 -11   6  156.24    3.61   0
  -7 -11  -6   38.87    3.57   0
   7  11   6   38.98    3.63   0
  -7  11  -6   41.93    3.48   0
   7 -11   6   39.92    3.83   0
   7 -11   6   36.23    4.52   0
   7 -11   6   39.79    3.42   0
 -10 -12   6   74.16    3.61   0
 -10 -12   6   75.18    2.70   0
 -10  12   6   74.37    3.67   0
  10 -12  -6   76.56    3.72   0
 -10 -12   6   81.86    3.88   0
 -10  12   6   69.29    2.81   0
  -9  12   6    6.06    3.38   0
   9 -12  -6    8.62    3.28   0
  -9 -12   6    8.87    2.41   0
  -9 -12   6    8.18    3.08   0
  -9 -12   6   10.99    3.15   0
  -9  12   6    8.87    3.21   0
  -8 -12   6    3.04    2.20   0
   8 -12  -6    3.52    2.22   0
  -8  12   6    4.53    2.27   0
  -8 -12   6    3.68    2.30   0
  -8  12   6    3.11    2.29   0
  -8 -12   6    5.66    2.23   0
   7 -12  -6   34.70    2.41   0
  -7 -12   6   31.64    3.07   0
  -7 -12   6   32.03    2.26   0
  -7  12   6   30.91    3.18   0
  -7 -12   6   40.44    3.24   0
  -7  12   6   36.69    3.40   0
   6 -12  -6    9.39    2.93   0
  -6 -12   6    7.85    2.87   0
  -6 -12   6    7.53    2.91   0
  -6 -12   6    8.25    2.93   0
  -6  12   6   10.06    3.03   0
  -6  12   6    5.07    2.16   0
   5 -12  -6  100.06    2.60   0
  -5 -12   6   96.36    2.49   0
  -5  12   6   96.20    2.55   0
  -5 -12   6   98.98    2.72   0
  -5  12   6   96.94    3.59   0
  -5 -12   6   96.11    2.48   0
   4  12  -6  378.04    4.09   0
   4 -12  -6  407.14    4.35   0
  -4 -12   6  394.11    4.25   0
  -4 -12   6  403.96    4.28   0
  -4  12   6  384.82    4.39   0
  -4 -12   6  413.44    4.59   0
  -4  12   6  394.50    4.99   0
   3 -12  -6  149.84    2.79   0
  -3 -12   6  144.84    2.78   0
   3  12  -6  147.59    3.75   0
  -3  12   6  135.27    3.42   0
  -3 -12   6  155.77    3.00   0
  -3  12   6  149.20    3.91   0
  -3 -12   6  149.79    3.38   0
   2 -12  -6   19.26    2.07   0
  -2 -12   6   21.48    2.14   0
  -2  12   6   17.94    2.86   0
   2  12  -6   18.87    2.25   0
  -2 -12   6   20.87    2.06   0
  -2  12   6   16.91    3.03   0
  -2 -12   6   18.40    2.18   0
   1 -12  -6    1.35    1.93   0
  -1  12   6    0.72    3.60   0
  -1 -12   6   -3.70    2.97   0
   1  12  -6   -0.08    2.97   0
  -1 -12   6    1.31    2.88   0
  -1  12   6    2.17    2.67   0
  -1 -12   6    1.13    2.05   0
   0 -12  -6  119.20    2.65   0
   0 -12   6  123.03    2.79   0
   0  12   6  122.74    3.37   0
   0  12  -6  125.33    2.81   0
   0 -12   6  124.96    3.38   0
   0 -12   6  118.96    3.45   0
   1 -12   6    0.96    2.09   0
   1  12   6    1.29    2.05   0
  -1  12  -6    2.43    2.97   0
   1 -12   6   -2.11    2.95   0
   1 -12   6   -1.26    2.09   0
  -1 -12  -6   -0.01    2.00   0
   2 -12   6   28.95    3.11   0
   2  12   6   26.23    2.27   0
  -2  12  -6   26.42    2.37   0
   2 -12   6   26.99    2.24   0
   2 -12   6   24.59    3.07   0
  -2 -12  -6   29.35    2.15   0
  -3 -12  -6    4.27    2.97   0
   3  12   6    4.65    3.01   0
  -3  12  -6    7.31    2.26   0
   3 -12   6    5.85    3.07   0
   3 -12   6    4.57    3.01   0
   3 -12   6    5.42    2.18   0
  -4 -12  -6   -0.77    2.15   0
   4 -12   6    0.36    3.20   0
   4 -12   6    0.25    3.17   0
   4  12   6    0.54    3.16   0
  -4  12  -6   -0.74    3.28   0
   4 -12   6   -1.04    2.23   0
  -5 -12  -6   33.01    3.30   0
   5  12   6   30.94    3.30   0
  -5  12  -6   36.23    3.34   0
   5 -12   6   32.69    3.45   0
   5 -12   6   31.41    3.49   0
   5 -12   6   30.44    2.30   0
  -6 -12  -6  121.82    3.17   0
   6 -12   6  121.03    4.24   0
   6  12   6  123.04    3.94   0
   6 -12   6  122.58    4.21   0
  -6  12  -6  127.13    3.00   0
   6 -12   6  129.95    2.89   0
 -10 -13   6  193.62    3.48   0
  10 -13  -6  191.44    3.74   0
 -10 -13   6  217.86    4.22   0
 -10 -13   6  224.95    4.70   0
 -10  13   6  192.83    3.51   0
 -10  13   6  178.91    3.68   0
   9 -13  -6   46.89    2.61   0
  -9 -13   6   54.04    2.61   0
  -9  13   6   45.79    2.66   0
  -9 -13   6   47.82    2.74   0
  -9 -13   6   50.18    3.40   0
  -9  13   6   40.87    2.67   0
  -8 -13   6  170.03    3.12   0
   8 -13  -6  172.32    3.95   0
  -8 -13   6  178.17    3.16   0
  -8  13   6  173.16    3.98   0
  -8  13   6  175.28    3.29   0
  -8 -13   6  188.02    3.56   0
  -7 -13   6  421.51    3.96   0
   7 -13  -6  411.47    4.12   0
  -7 -13   6  405.06    3.94   0
  -7 -13   6  464.55    5.21   0
  -7  13   6  403.55    4.67   0
  -7  13   6  431.29    4.95   0
   6 -13  -6   86.85    3.45   0
  -6  13   6   80.54    3.37   0
  -6 -13   6   90.67    2.80   0
  -6 -13   6   80.73    2.52   0
  -6  13   6   89.18    3.65   0
  -6 -13   6   88.85    3.33   0
  -5 -13   6  244.41    3.14   0
   5 -13  -6  264.56    4.01   0
  -5 -13   6  251.05    3.21   0
  -5 -13   6  266.73    3.68   0
  -5  13   6  245.83    3.87   0
  -5  13   6  255.37    4.40   0
  -4  13   6   91.81    3.63   0
   4 -13  -6   88.67    2.61   0
   4  13  -6   82.29    2.77   0
  -4 -13   6   86.88    2.71   0
  -4 -13   6   80.58    2.43   0
  -4  13   6   85.07    3.32   0
  -4 -13   6   95.37    3.23   0
  -3 -13   6   67.53    2.40   0
   3 -13  -6   71.76    3.18   0
  -3  13   6   65.24    3.30   0
   3  13  -6   62.97    2.63   0
  -3 -13   6   73.85    3.25   0
  -3  13   6   66.86    3.55   0
  -3 -13   6   66.77    2.47   0
   2 -13  -6   90.44    2.50   0
  -2 -13   6   90.23    3.22   0
  -2 -13   6   87.28    2.53   0
  -2  13   6   87.69    3.81   0
  -2 -13   6   88.80    2.62   0
  -2  13   6   83.78    2.51   0
   2  13  -6   77.96    2.67   0
   1 -13  -6  364.31    4.19   0
  -1 -13   6  355.62    4.25   0
  -1 -13   6  341.90    3.69   0
   1  13  -6  344.70    3.87   0
  -1  13   6  329.02    4.08   0
  -1  13   6  336.73    6.41   0
  -1 -13   6  358.51    4.28   0
   0 -13  -6  182.89    3.70   0
   0 -13   6  168.40    3.69   0
   0  13  -6  170.63    3.01   0
   0 -13   6  187.08    3.66   0
   0 -13   6  165.96    2.97   0
   0  13   6  170.21    3.62   0
   1  13   6  766.33    5.00   0
   1 -13   6  860.75    5.90   0
  -1  13  -6  853.08    5.28   0
   1 -13   6  862.19    5.85   0
   1 -13   6  863.68    5.21   0
  -1 -13  -6  840.54    5.18   0
   2 -13   6  352.04    4.00   0
   2 -13   6  356.84    3.96   0
  -2  13  -6  370.87    3.82   0
   2  13   6  354.92    4.31   0
   2 -13   6  362.87    3.71   0
  -2 -13  -6  364.21    3.73   0
   3  13   6  567.46    5.08   0
   3 -13   6  570.73    4.98   0
   3 -13   6  576.78    4.97   0
  -3  13  -6  602.28    4.54   0
   3 -13   6  620.09    5.10   0
  -3 -13  -6  594.08    4.59   0
  -4 -13  -6  570.42    4.68   0
   4 -13   6  588.24    5.73   0
   4  13   6  556.96    5.25   0
  -4  13  -6  598.83    4.68   0
   4 -13   6  563.54    5.19   0
   4 -13   6  623.14    5.14   0
  -5 -13  -6  246.37    3.64   0
   5  13   6  224.33    4.24   0
  -5  13  -6  251.50    3.62   0
   5 -13   6  237.92    4.65   0
   5 -13   6  245.09    4.65   0
   5 -13   6  236.30    3.44   0
  -6 -13  -6  187.49    4.19   0
  -6  13  -6  197.86    4.21   0
   6  13   6  154.88    4.20   0
   6 -13   6  160.63    4.62   0
   6 -13   6  152.70    4.69   0
   6 -13   6  175.08    3.26   0
   9 -14  -6    0.31    2.45   0
  -9  14   6    1.05    2.43   0
  -9 -14   6    2.00    3.39   0
  -9 -14   6    1.61    2.28   0
  -9  14   6    3.12    3.43   0
  -9 -14   6    2.82    2.39   0
  -8 -14   6   11.53    3.28   0
   8 -14  -6   12.05    2.34   0
  -8  14   6    7.98    2.37   0
  -8 -14   6   11.27    2.40   0
  -8  14   6   10.59    3.44   0
  -8 -14   6    7.44    3.20   0
  -7  14   6   21.53    2.40   0
   7 -14  -6   20.83    2.44   0
  -7 -14   6   20.88    3.20   0
  -7 -14   6   23.45    2.32   0
  -7 -14   6   22.60    2.45   0
  -7  14   6   26.53    3.50   0
   6 -14  -6   70.45    2.68   0
  -6  14   6   80.92    3.47   0
  -6 -14   6   75.24    3.41   0
  -6 -14   6   87.93    3.55   0
  -6  14   6   71.13    2.81   0
  -6 -14   6   77.81    3.44   0
  -5 -14   6  117.08    2.80   0
   5 -14  -6  120.04    2.78   0
  -5 -14   6  117.06    2.69   0
  -5 -14   6  128.29    3.01   0
  -5  14   6  119.04    3.55   0
  -5  14   6  125.32    3.83   0
  -4 -14   6  149.41    3.52   0
   4 -14  -6  145.57    3.57   0
   4  14  -6  137.34    3.92   0
  -4 -14   6  145.17    3.05   0
  -4  14   6  141.64    3.99   0
  -4  14   6  126.72    2.78   0
  -4 -14   6  139.63    3.51   0
   3 -14  -6   43.44    3.08   0
  -3 -14   6   41.93    2.23   0
  -3  14   6   41.08    3.05   0
  -3  14   6   42.04    3.45   0
  -3 -14   6   49.02    2.45   0
  -3 -14   6   41.48    2.30   0
   3  14  -6   37.24    2.47   0
   2 -14  -6  289.13    3.91   0
  -2 -14   6  277.57    4.01   0
   2  14  -6  264.22    4.33   0
  -2  14   6  256.28    3.90   0
  -2  14   6  271.35    5.18   0
  -2 -14   6  270.84    3.92   0
  -2 -14   6  281.27    3.55   0
   1 -14  -6    8.36    2.84   0
  -1  14   6    5.87    3.96   0
  -1 -14   6    5.45    2.04   0
  -1  14   6    5.07    2.05   0
  -1 -14   6    5.32    2.18   0
   1  14  -6    4.87    2.19   0
  -1 -14   6    7.18    2.08   0
   0 -14  -6   20.53    3.00   0
   0 -14   6   23.97    3.10   0
   0  14   6   18.40    2.21   0
   0 -14   6   18.03    2.23   0
   0  14  -6   23.86    3.22   0
   0 -14   6   20.94    2.25   0
   1 -14   6    6.90    3.08   0
  -1  14  -6    3.00    2.21   0
   1  14   6    7.31    3.09   0
   1 -14   6    5.67    2.11   0
   1 -14   6    4.09    2.08   0
  -1 -14  -6    4.76    2.24   0
   2 -14   6    2.26    3.17   0
   2  14   6    1.04    2.22   0
  -2  14  -6   -1.03    3.10   0
   2 -14   6    1.47    3.06   0
   2 -14   6    1.85    2.15   0
  -2 -14  -6   -0.95    2.10   0
   3 -14   6   34.39    3.39   0
   3  14   6   27.44    2.42   0
  -3  14  -6   35.32    3.46   0
   3 -14   6   39.31    3.34   0
   3 -14   6   37.16    2.51   0
  -3 -14  -6   38.18    2.41   0
  -4 -14  -6   12.47    3.22   0
   4 -14   6    7.55    2.49   0
   4  14   6   10.29    3.33   0
  -4  14  -6   11.63    3.32   0
   4 -14   6    9.79    2.45   0
   4 -14   6   14.12    3.28   0
  -5 -14  -6   11.07    3.36   0
   5  14   6   12.36    2.48   0
   5 -14   6   14.83    3.47   0
  -5  14  -6   18.39    3.42   0
   5 -14   6    9.19    3.45   0
   5 -14   6   15.07    3.36   0
  -8 -15   6   25.29    2.48   0
   8 -15  -6   25.76    2.55   0
  -8 -15   6   30.37    3.45   0
  -8 -15   6   26.83    3.53   0
  -8  15   6   21.35    2.60   0
  -8  15   6   23.93    2.65   0
  -7 -15   6   67.44    2.64   0
   7 -15  -6   81.60    3.62   0
  -7  15   6   61.31    2.73   0
  -7 -15   6   79.02    3.53   0
  -7 -15   6   78.39    3.78   0
  -7  15   6   75.18    3.84   0
   6 -15  -6   12.25    3.16   0
  -6 -15   6    8.69    2.24   0
  -6  15   6    8.55    3.27   0
  -6 -15   6   12.14    3.23   0
  -6  15   6    9.19    2.43   0
  -6 -15   6    8.39    2.36   0
   5 -15  -6   26.22    3.27   0
  -5 -15   6   28.66    3.11   0
  -5 -15   6   29.43    2.49   0
  -5  15   6   26.30    3.33   0
  -5  15   6   26.92    3.30   0
  -5 -15   6   26.09    2.23   0
   4 -15  -6    1.45    2.17   0
  -4 -15   6   -0.04    2.96   0
   4  15  -6    1.26    2.40   0
  -4  15   6    2.47    3.21   0
  -4 -15   6   -0.41    3.04   0
  -4  15   6    1.35    2.28   0
  -4 -15   6    0.95    3.05   0
   3 -15  -6    7.42    2.17   0
   3  15  -6    6.18    3.30   0
  -3 -15   6    5.29    3.12   0
  -3 -15   6    4.77    2.12   0
  -3  15   6    4.86    3.18   0
  -3  15   6    5.48    3.27   0
  -3 -15   6    6.01    3.14   0
   2 -15  -6   15.63    3.06   0
  -2 -15   6   16.63    2.21   0
  -2  15   6   18.06    3.15   0
  -2 -15   6   14.92    2.16   0
  -2  15   6   13.30    3.44   0
  -2 -15   6   14.40    2.23   0
   2  15  -6   14.85    3.30   0
   1 -15  -6    4.59    3.05   0
  -1 -15   6    2.11    2.24   0
   1  15  -6    0.71    3.19   0
  -1 -15   6    6.20    3.02   0
  -1  15   6    2.38    4.07   0
  -1  15   6    3.38    2.17   0
  -1 -15   6    0.65    2.97   0
   0 -15  -6   10.47    3.09   0
   0  15  -6   10.73    3.28   0
   0 -15   6   12.29    3.08   0
   0 -15   6   10.93    3.04   0
   0  15   6    8.11    3.22   0
   0 -15   6   10.58    2.90   0
   1  15   6   13.71    2.34   0
  -1  15  -6   18.80    3.28   0
   1 -15   6   13.42    2.30   0
   1 -15   6   16.22    2.29   0
   1 -15   6   17.08    2.24   0
  -1 -15  -6   13.39    2.28   0
   2  15   6   11.01    2.35   0
  -2  15  -6    9.95    2.37   0
   2 -15   6   10.02    2.33   0
   2 -15   6   11.53    2.17   0
   2 -15   6   12.34    3.27   0
  -2 -15  -6   11.63    2.31   0
   3  15   6   54.96    2.64   0
   3 -15   6   53.18    2.68   0
  -3  15  -6   63.96    3.65   0
   3 -15   6   55.00    2.75   0
   3 -15   6   57.38    3.40   0
  -3 -15  -6   53.72    2.62   0
  -4 -15  -6   60.24    2.66   0
   4  15   6   49.71    2.73   0
   4 -15   6   55.20    3.70   0
  -4  15  -6   56.80    2.73   0
   4 -15   6   59.15    3.67   0
   4 -15   6   58.02    2.63   0
   6 -16  -6   -0.58    2.39   0
  -6  16   6    1.24    3.43   0
  -6 -16   6    0.55    2.28   0
  -6 -16   6    1.10    2.29   0
  -6  16   6    2.28    3.48   0
  -6 -16   6   -2.28    2.31   0
  -5 -16   6   24.55    2.41   0
   5 -16  -6   30.42    3.40   0
  -5  16   6   28.57    3.47   0
  -5 -16   6   26.11    2.30   0
  -5  16   6   27.87    3.59   0
  -5 -16   6   25.82    2.53   0
   4 -16  -6  121.62    3.76   0
  -4 -16   6  110.10    2.79   0
  -4  16   6  112.18    4.14   0
   4  16  -6  106.40    3.17   0
  -4 -16   6  121.62    3.78   0
  -4  16   6  104.28    3.73   0
  -4 -16   6  105.89    3.57   0
   3 -16  -6    6.17    3.24   0
   3  16  -6    5.04    3.43   0
  -3  16   6    5.67    2.40   0
  -3 -16   6    3.60    3.28   0
  -3 -16   6    4.35    2.24   0
  -3  16   6    4.94    3.39   0
  -3 -16   6    5.60    2.25   0
   2 -16  -6  260.82    3.36   0
  -2 -16   6  257.37    4.11   0
   2  16  -6  246.04    3.77   0
  -2  16   6  266.58    5.56   0
  -2  16   6  241.63    3.39   0
  -2 -16   6  264.58    3.40   0
  -2 -16   6  262.20    3.72   0
   1 -16  -6  151.48    3.69   0
  -1 -16   6  128.17    2.94   0
  -1  16   6  141.64    3.76   0
  -1 -16   6  163.33    3.87   0
  -1  16   6  147.05    6.60   0
  -1 -16   6  161.12    3.75   0
   1  16  -6  143.58    4.06   0
   0 -16  -6   39.27    2.44   0
   0 -16   6   35.19    3.36   0
   0  16   6   35.17    2.43   0
   0  16  -6   36.19    2.61   0
   0 -16   6   38.58    3.22   0
   0 -16   6   38.70    2.44   0
   1 -16   6    8.34    3.28   0
  -1 -16  -6    6.96    3.28   0
  -1  16  -6    7.28    2.54   0
   1  16   6    7.84    2.43   0
   1 -16   6    8.34    2.29   0
   1 -16   6    9.09    3.15   0
   2  16   6    3.90    3.35   0
   2 -16   6    3.44    3.36   0
  -2  16  -6    4.81    2.40   0
   2 -16   6    5.46    3.24   0
   2 -16   6    4.45    2.25   0
  -2 -16  -6    4.83    2.38   0
   4 -17  -6   36.15    3.53   0
   4  17  -6   27.84    2.80   0
  -4  17   6   26.14    3.54   0
  -4 -17   6   27.58    2.44   0
  -4 -17   6   34.49    2.55   0
  -4 -17   6   34.35    2.65   0
  -4  17   6   32.89    3.78   0
   3 -17  -6    3.69    3.30   0
  -3  17   6    1.62    2.45   0
  -3 -17   6    1.43    2.40   0
   3  17  -6    0.51    2.50   0
  -3 -17   6    5.68    3.18   0
  -3  17   6    0.85    3.57   0
  -3 -17   6    0.44    2.36   0
   2 -17  -6   30.03    2.42   0
  -2 -17   6   30.82    3.38   0
  -2  17   6   26.66    2.56   0
   2  17  -6   29.69    3.72   0
  -2 -17   6   27.96    3.28   0
  -2  17   6   30.40    3.84   0
  -2 -17   6   30.99    2.54   0
   1 -17  -6   27.74    2.46   0
  -1 -17   6   27.72    3.45   0
  -1  17   6   23.97    2.57   0
   1  17  -6   28.22    2.70   0
  -1 -17   6   25.40    2.39   0
  -1  17   6   30.54    5.70   0
  -1 -17   6   29.60    2.53   0
   0 -17  -6   57.42    2.74   0
   0  17  -6   52.42    3.78   0
   0  17   6   57.48    3.68   0
   0 -17   6   53.09    2.69   0
   0 -17   6   50.65    2.74   0
   0 -17   6   60.12    3.56   0
 -14  -1   7    0.44    2.55   0
 -14   1   7   -1.42    3.69   0
 -14  -1   7   -1.01    3.59   0
 -14   1   7   -0.28    3.44   0
 -13   1   7   32.85    3.36   0
 -13  -1   7   31.77    2.53   0
 -13   1   7   28.58    2.67   0
 -13  -1   7   32.50    3.57   0
 -12   1   7   91.29    2.65   0
 -12  -1   7   99.84    3.49   0
 -12   1   7   99.22    3.73   0
 -12  -1   7  101.77    3.85   0
  12  -1  -7   96.19    3.55   0
 -11   1   7  558.48    4.39   0
 -11  -1   7  543.37    4.43   0
 -11   1   7  575.96    5.72   0
 -11  -1   7  605.78    5.79   0
  11  -1  -7  533.71    4.89   0
  11   1  -7  534.00    4.86   0
 -10   1   7    2.50    2.03   0
 -10  -1   7    0.03    2.95   0
  10   1  -7    6.24    2.73   0
 -10   1   7    1.30    2.84   0
 -10  -1   7    2.48    2.83   0
  10  -1  -7    1.43    2.73   0
   9  -1  -7    8.14    2.80   0
  -9   1   7   10.88    2.77   0
  -9   1   7    6.99    2.04   0
  -9  -1   7    6.74    2.71   0
   9   1  -7    3.80    1.88   0
  -8   1   7 1025.49    6.34   0
   8   1  -7  936.68    5.83   0
   8  -1  -7  966.63    5.98   0
  -8  -1   7 1022.61    6.19   0
   7   1  -7 1038.97    6.34   0
   7  -1  -7 1042.00    6.19   0
  -7   1   7 1135.74    6.82   0
  -7  -1   7 1126.39    6.68   0
   6   1  -7   60.94    2.85   0
   6  -1  -7   57.76    2.80   0
  -6   1   7   62.08    2.90   0
  -6  -1   7   57.33    2.26   0
   5  -1  -7  240.17    3.33   0
  -5   1   7  252.70    3.86   0
   5   1  -7  235.35    3.28   0
  -5  -1   7  271.59    3.90   0
   4  -1  -7 2379.01    9.37   0
  -4   1   7 2406.40    9.55   0
  -4  -1   7 2337.29    9.82   0
   4   1  -7 2326.42    9.21   0
  -4  -1   7 2476.69    9.69   0
   3  -1  -7  705.72    5.42   0
  -3   1   7  657.71    5.72   0
  -3   1   7  699.75    5.35   0
   3   1  -7  686.12    5.27   0
  -3  -1   7  714.19    5.40   0
  -3  -1   7  665.95    5.47   0
   2  -1  -7  165.13    3.57   0
  -2  -1   7  165.56    3.77   0
   2   1  -7  154.14    3.13   0
  -2   1   7  166.23    3.51   0
  -2   1   7  170.57    4.01   0
   2   1  -7  159.69    3.48   0
  -2  -1   7  168.47    3.52   0
   1  -1  -7  203.95    3.89   0
   1   1  -7  196.08    3.99   0
  -1   1   7  198.57    3.88   0
  -1   1   7  201.23    3.69   0
  -1  -1   7  212.93    4.01   0
   1   1  -7  188.25    3.28   0
  -1  -1   7  209.77    3.85   0
   1  -1  -7  189.12    3.63   0
   0  -1   7  566.06    5.50   0
   0   1   7  539.56    5.13   0
   0   1  -7  546.42    5.13   0
   0   1   7  575.19    5.96   0
   0  -1   7  559.12    5.22   0
   0   1  -7  536.09    5.12   0
   0  -1  -7  536.65    5.49   0
   0  -1  -7  551.41    5.24   0
  -1  -1  -7  103.47    2.78   0
   1   1   7  108.03    3.32   0
  -1  -1  -7  110.69    3.48   0
   1  -1   7  107.61    3.34   0
   1   1   7  108.36    3.37   0
   1  -1   7  108.00    3.25   0
  -1   1  -7  103.47    3.32   0
  -1   1  -7  107.62    2.77   0
   2   1   7    7.32    2.54   0
  -2  -1  -7    6.30    2.68   0
  -2   1  -7   10.96    2.59   0
   2  -1   7    6.87    1.82   0
   2  -1   7    7.10    1.78   0
   2   1   7    5.64    2.63   0
  -2  -1  -7    9.70    2.72   0
  -2   1  -7    8.75    2.54   0
  -3  -1  -7  442.70    5.65   0
   3  -1   7  418.83    5.59   0
  -3   1  -7  429.71    5.69   0
  -3   1  -7  470.47    4.95   0
  -3  -1  -7  447.15    4.84   0
   3  -1   7  412.53    4.21   0
   3   1   7  422.86    5.06   0
   3   1   7  409.26    5.44   0
  -4   1  -7  511.10    6.68   0
   4  -1   7  486.00    6.54   0
  -4  -1  -7  531.96    6.43   0
  -4  -1  -7  541.09    5.04   0
  -4   1  -7  565.40    5.27   0
   4   1   7  480.55    6.08   0
   4  -1   7  513.23    4.99   0
   4   1   7  511.99    5.28   0
  -5  -1  -7  436.93    5.07   0
  -5   1  -7  440.56    4.80   0
   5   1   7  384.20    6.45   0
  -5  -1  -7  403.49    6.28   0
   5  -1   7  373.73    7.13   0
   5  -1   7  397.30    4.58   0
   5   1   7  400.30    4.83   0
   6   1   7    2.92    4.16   0
  -6   1  -7    1.51    2.95   0
  -6  -1  -7    2.73    3.52   0
  -6  -1  -7    2.60    2.88   0
   6  -1   7    3.21    2.80   0
   6   1   7    3.53    2.80   0
   7   1   7  162.63    3.93   0
  -7  -1  -7  175.90    3.34   0
  -7   1  -7  175.77    3.22   0
   7  -1   7  154.70    3.06   0
   8  -1   7  287.36    4.40   0
   8   1   7  301.33    4.67   0
  -8   1  -7  342.43    4.62   0
  -8  -1  -7  321.49    4.84   0
   9  -1   7   20.59    2.49   0
   9   1   7   21.17    3.34   0
  -9   1  -7   23.54    3.46   0
  -9  -1  -7   16.45    2.50   0
 -14   2   7    4.83    3.57   0
 -14  -2   7   11.06    3.39   0
 -14  -2   7    6.79    3.42   0
 -14  -2   7    4.31    2.55   0
 -14   2   7    6.70    2.38   0
 -13  -2   7    3.60    2.35   0
 -13   2   7    1.88    3.35   0
  13  -2  -7    2.75    3.11   0
 -13  -2   7    2.07    3.40   0
 -13   2   7    1.92    2.40   0
 -12   2   7  165.54    3.01   0
 -12  -2   7  173.48    3.80   0
 -12   2   7  175.97    4.16   0
 -12  -2   7  177.17    4.22   0
  12  -2  -7  160.29    3.98   0
 -11   2   7    5.24    3.00   0
 -11  -2   7    5.10    2.10   0
 -11   2   7    2.31    2.08   0
 -11  -2   7    2.78    2.99   0
  11  -2  -7    5.61    2.81   0
 -10   2   7  306.80    3.45   0
 -10   2   7  299.11    3.90   0
  10   2  -7  308.25    4.24   0
 -10  -2   7  325.34    4.44   0
  10  -2  -7  287.58    3.74   0
  -9   2   7  431.16    4.45   0
   9  -2  -7  408.13    4.18   0
  -9  -2   7  452.06    4.78   0
  -9   2   7  441.63    4.87   0
   9   2  -7  420.33    4.60   0
  -8   2   7  352.39    4.12   0
   8   2  -7  318.97    3.69   0
  -8   2   7  347.57    4.47   0
   8  -2  -7  336.34    4.28   0
  -8  -2   7  356.50    4.33   0
  -7  -2   7  356.59    4.35   0
   7  -2  -7  332.78    3.78   0
  -7   2   7  339.99    4.33   0
   7   2  -7  316.73    3.62   0
  -6  -2   7    3.40    1.82   0
   6  -2  -7    3.52    1.78   0
  -6   2   7    7.51    2.56   0
   6   2  -7    3.09    1.76   0
   5  -2  -7  630.26    5.33   0
  -5  -2   7  624.65    4.89   0
  -5  -2   7  564.32    5.12   0
  -5   2   7  608.88    5.28   0
   5   2  -7  583.48    4.74   0
  -4  -2   7  286.79    3.98   0
   4   2  -7  267.69    3.47   0
  -4   2   7  274.16    3.99   0
  -4  -2   7  253.97    3.58   0
   4  -2  -7  276.40    4.00   0
  -3  -2   7   36.47    2.02   0
   3   2  -7   33.78    2.06   0
  -3   2   7   32.76    3.01   0
  -3  -2   7   35.88    2.21   0
   3  -2  -7   36.24    2.02   0
  -3   2   7   36.23    2.03   0
  -2  -2   7 1008.50    6.68   0
   2   2  -7  892.82    6.15   0
   2   2  -7  939.30    6.45   0
  -2   2   7  921.83    7.31   0
  -2   2   7  910.56    6.08   0
  -2  -2   7 1000.78    6.80   0
   2  -2  -7  951.65    6.26   0
  -1  -2   7 4164.35   13.25   0
   1   2  -7 3901.60   12.81   0
  -1   2   7 3956.80   12.79   0
   1   2  -7 3765.28   12.37   0
  -1   2   7 4011.14   15.02   0
  -1  -2   7 4161.23   13.00   0
   1  -2  -7 3979.24   12.58   0
   0   2   7  657.90    5.45   0
   0   2  -7  682.13    5.68   0
   0  -2  -7  691.72    6.76   0
   0   2  -7  704.30    5.49   0
   0   2   7  715.12    6.50   0
   0  -2   7  701.85    5.45   0
   0  -2  -7  703.15    5.66   0
   0  -2   7  719.42    5.74   0
   1   2   7  448.51    5.08   0
  -1   2  -7  484.28    4.98   0
   1   2   7  467.87    5.61   0
   1  -2   7  468.59    4.80   0
  -1  -2  -7  482.74    5.83   0
   1  -2   7  480.56    5.34   0
  -1  -2  -7  487.25    5.27   0
  -1   2  -7  454.83    5.27   0
  -2  -2  -7  865.25    7.29   0
  -2   2  -7  861.75    5.75   0
   2  -2   7  849.84    7.05   0
   2  -2   7  806.64    5.57   0
   2   2   7  828.18    6.99   0
  -2   2  -7  818.04    7.00   0
  -2  -2  -7  866.22    6.99   0
   2   2   7  757.47    6.16   0
  -3  -2  -7  347.73    5.03   0
   3  -2   7  323.23    5.16   0
  -3   2  -7  334.81    3.93   0
  -3   2  -7  317.95    5.07   0
   3  -2   7  325.05    4.17   0
   3   2   7  315.89    4.80   0
   3   2   7  301.27    4.69   0
  -3  -2  -7  324.24    4.48   0
  -4   2  -7   12.16    2.86   0
   4  -2   7   10.09    2.74   0
   4   2   7    9.58    2.65   0
   4  -2   7   10.90    2.75   0
   4   2   7   10.36    2.72   0
  -4  -2  -7    9.98    2.10   0
  -4  -2  -7   12.16    2.83   0
   5  -2   7    4.55    3.42   0
  -5  -2  -7    4.89    2.86   0
   5   2   7    4.88    2.74   0
  -5  -2  -7    6.46    2.83   0
   5  -2   7    4.68    1.93   0
  -5   2  -7    4.43    2.79   0
   5   2   7    5.81    2.77   0
   6   2   7   18.79    2.97   0
   6   2   7   16.71    3.68   0
  -6  -2  -7   16.86    3.84   0
  -6  -2  -7   18.86    3.08   0
  -6   2  -7   17.16    2.19   0
   6  -2   7   18.33    2.89   0
   7   2   7    1.68    3.02   0
  -7  -2  -7    5.04    3.08   0
  -7   2  -7    3.05    3.11   0
  -7  -2  -7    3.77    4.90   0
   7  -2   7    1.95    3.01   0
   8  -2   7  116.54    3.71   0
   8   2   7  113.94    3.92   0
  -8  -2  -7  133.83    4.05   0
  -8   2  -7  117.89    3.04   0
   9  -2   7   25.68    3.36   0
   9   2   7   23.88    3.50   0
  -9  -2  -7   26.76    3.49   0
  -9   2  -7   25.86    2.57   0
 -14  -3   7   88.71    3.00   0
 -14  -3   7  105.97    4.03   0
  14  -3  -7   92.12    4.11   0
 -14  -3   7  106.69    4.26   0
 -14   3   7  106.34    4.31   0
 -14   3   7   91.13    3.08   0
 -13  -3   7   80.63    3.52   0
  13  -3  -7   68.63    3.63   0
 -13  -3   7   81.25    3.83   0
 -13   3   7   72.26    2.65   0
 -13   3   7   68.49    2.97   0
 -12   3   7   23.99    3.22   0
 -12   3   7   18.98    3.27   0
 -12  -3   7   17.93    2.23   0
  12  -3  -7   18.34    3.09   0
 -12  -3   7   22.54    2.38   0
 -11   3   7    9.60    2.14   0
 -11   3   7    8.13    2.15   0
 -11  -3   7    7.88    2.14   0
 -11  -3   7    9.09    2.20   0
  11  -3  -7   11.12    2.88   0
 -10   3   7   38.60    2.19   0
 -10   3   7   40.91    2.40   0
  10  -3  -7   41.29    3.02   0
 -10  -3   7   44.63    3.14   0
  -9   3   7   98.33    2.54   0
  -9  -3   7  105.30    3.29   0
  -9   3   7   97.71    3.31   0
   9  -3  -7  100.07    3.24   0
   9   3  -7   96.67    2.59   0
  -8   3   7  837.23    5.25   0
  -8  -3   7  873.43    5.58   0
   8   3  -7  846.69    5.81   0
  -8   3   7  824.02    5.77   0
   8  -3  -7  871.21    6.10   0
   7  -3  -7 2926.09   10.06   0
  -7   3   7 2902.51    9.69   0
  -7   3   7 2834.59   10.06   0
  -7  -3   7 3091.47   10.32   0
   7   3  -7 2731.20    9.36   0
  -6   3   7  292.45    4.15   0
  -6  -3   7  291.77    3.57   0
  -6  -3   7  273.79    4.14   0
   6   3  -7  279.84    3.89   0
   6  -3  -7  283.32    3.61   0
   5   3  -7  890.95    5.93   0
  -5  -3   7  887.11    5.66   0
  -5  -3   7  823.46    5.69   0
  -5   3   7  887.35    6.10   0
   5  -3  -7  918.57    6.10   0
  -4   3   7 1302.31    7.16   0
  -4  -3   7 1359.74    7.13   0
   4  -3  -7 1273.39    6.78   0
   4   3  -7 1218.05    6.59   0
  -4  -3   7 1288.36    7.30   0
  -3   3   7 1170.20    6.66   0
  -3  -3   7 1299.38    7.13   0
  -3  -3   7 1284.27    7.39   0
   3  -3  -7 1268.50    7.08   0
   3   3  -7 1144.60    6.77   0
   3   3  -7 1206.59    6.87   0
  -2   3   7 1266.51    7.20   0
  -2  -3   7 1344.86    7.45   0
  -2   3   7 1177.97    8.13   0
   2   3  -7 1248.59    7.28   0
  -2  -3   7 1264.57    7.03   0
   2  -3  -7 1319.64    7.35   0
   2   3  -7 1205.56    6.81   0
  -1   3   7  167.68    3.06   0
   1  -3  -7  174.68    3.15   0
  -1  -3   7  179.97    3.70   0
  -1   3   7  181.63    4.28   0
  -1  -3   7  189.35    3.65   0
   1   3  -7  170.44    3.07   0
   1   3  -7  168.04    3.11   0
   0   3   7   59.07    2.31   0
   0   3  -7   66.37    2.97   0
   0  -3   7   66.39    2.42   0
   0   3  -7   70.51    3.12   0
   0   3   7   66.60    3.39   0
   0  -3   7   63.40    2.30   0
   0  -3  -7   65.35    3.03   0
   1  -3   7    1.40    2.46   0
  -1   3  -7    1.24    1.91   0
  -1  -3  -7    0.70    2.48   0
  -1   3  -7    1.80    2.40   0
   1   3   7    0.54    2.49   0
   1  -3   7    0.57    1.79   0
  -1  -3  -7    0.61    2.65   0
   1   3   7    2.51    2.41   0
  -2  -3  -7  573.04    6.58   0
  -2   3  -7  612.55    5.26   0
  -2  -3  -7  559.75    5.35   0
   2   3   7  555.19    6.26   0
  -2   3  -7  553.75    5.98   0
   2  -3   7  570.50    5.02   0
   2  -3   7  570.79    5.54   0
   2   3   7  533.52    5.43   0
  -3  -3  -7 1901.25   10.57   0
   3  -3   7 1916.50   10.87   0
  -3  -3  -7 1923.45   10.06   0
  -3   3  -7 1966.06    8.11   0
   3   3   7 1616.74    8.80   0
   3  -3   7 1880.58    8.13   0
   3   3   7 1825.40   10.47   0
   4  -3   7  930.08    8.67   0
  -4  -3  -7 1001.08    7.83   0
  -4   3  -7  985.99    5.80   0
   4   3   7  815.73    6.64   0
  -4  -3  -7  981.46    7.79   0
   4  -3   7  951.53    5.99   0
   4   3   7  922.81    7.49   0
   5  -3   7  211.07    6.07   0
   5  -3   7  224.06    6.05   0
   5   3   7  207.33    4.41   0
  -5  -3  -7  234.56    4.50   0
  -5   3  -7  243.13    3.93   0
   5  -3   7  213.05    3.17   0
  -5  -3  -7  219.23    4.63   0
   5   3   7  222.17    4.43   0
   6   3   7  726.55    6.23   0
  -6  -3  -7  799.57    8.32   0
   6   3   7  709.40    7.78   0
  -6  -3  -7  835.29    7.15   0
  -6   3  -7  846.61    5.87   0
   6  -3   7  737.46    5.03   0
  -7   3  -7  685.78    5.45   0
   7   3   7  625.01    6.24   0
   7   3   7  581.32    9.06   0
  -7  -3  -7  679.07    6.49   0
  -7  -3  -7  635.15    9.34   0
   7  -3   7  608.06    4.71   0
   8   3   7  600.36    6.34   0
  -8  -3  -7  651.33    6.54   0
  -8   3  -7  651.10    5.09   0
   8  -3   7  595.28    4.86   0
   9  -3   7  132.72    3.13   0
  -9   3  -7  135.03    3.22   0
  -9  -3  -7  156.21    4.46   0
 -13  -4   7  120.75    3.11   0
 -13  -4   7  126.81    3.89   0
  13  -4  -7  112.24    3.95   0
 -13  -4   7  137.06    4.06   0
 -13   4   7  118.21    4.05   0
 -13   4   7  116.04    2.96   0
  12  -4  -7  185.53    3.43   0
 -12  -4   7  206.25    3.32   0
 -12  -4   7  216.58    3.64   0
 -12   4   7  207.39    4.44   0
 -12   4   7  197.94    3.16   0
 -11   4   7   86.59    2.62   0
 -11   4   7   83.15    2.80   0
 -11  -4   7   93.79    2.77   0
 -11  -4   7   86.77    2.60   0
  11  -4  -7   89.18    3.47   0
 -10   4   7   39.09    2.24   0
 -10   4   7   38.64    2.39   0
 -10  -4   7   45.21    3.04   0
  10  -4  -7   42.13    3.08   0
  -9   4   7  441.26    4.49   0
  -9   4   7  400.46    4.27   0
   9  -4  -7  429.13    4.73   0
  -9  -4   7  442.28    4.65   0
   8  -4  -7  285.95    4.13   0
  -8   4   7  281.36    3.45   0
  -8   4   7  283.25    4.12   0
  -8  -4   7  266.08    3.54   0
  -8  -4   7  290.69    3.51   0
  -7  -4   7   38.16    2.82   0
  -7   4   7   37.20    2.94   0
  -7   4   7   37.63    2.81   0
  -7  -4   7   31.12    3.02   0
   7   4  -7   36.53    2.79   0
   7  -4  -7   35.09    2.79   0
   6   4  -7  141.63    3.26   0
  -6   4   7  136.91    2.86   0
  -6   4   7  144.86    3.51   0
  -6  -4   7  134.02    2.89   0
  -6  -4   7  142.20    2.76   0
   6  -4  -7  146.20    3.38   0
  -5   4   7  425.11    4.64   0
   5   4  -7  416.46    3.99   0
  -5  -4   7  439.75    4.79   0
   5  -4  -7  427.05    4.19   0
  -5  -4   7  451.90    4.51   0
   4   4  -7   66.37    2.21   0
  -4   4   7   63.86    2.87   0
  -4  -4   7   66.93    2.25   0
   4  -4  -7   69.94    2.86   0
  -4  -4   7   66.11    2.41   0
   3   4  -7  171.66    3.40   0
   3   4  -7  165.08    3.01   0
  -3   4   7  169.08    2.93   0
  -3  -4   7  188.52    3.67   0
   3  -4  -7  175.77    2.97   0
  -3  -4   7  177.41    2.98   0
  -2   4   7  208.28    4.32   0
   2   4  -7  219.78    3.67   0
  -2   4   7  205.29    3.59   0
   2   4  -7  206.81    3.22   0
   2  -4  -7  213.69    3.22   0
  -2  -4   7  221.02    3.27   0
  -2  -4   7  228.49    3.71   0
  -1   4   7  288.67    4.05   0
   1   4  -7  295.52    4.14   0
  -1   4   7  282.67    4.66   0
  -1  -4   7  305.07    3.81   0
  -1  -4   7  308.61    4.08   0
   1   4  -7  288.86    3.65   0
   1  -4  -7  290.13    3.67   0
   0   4  -7  593.76    5.44   0
   0  -4   7  622.04    5.54   0
   0  -4  -7  605.63    5.42   0
   0   4   7  619.65    7.13   0
   0  -4   7  591.48    4.80   0
   0   4   7  569.86    5.23   0
   0   4  -7  598.58    4.88   0
   1  -4   7    6.87    2.49   0
  -1  -4  -7    6.94    1.80   0
  -1   4  -7    7.17    1.94   0
   1   4   7    5.23    2.52   0
   1  -4   7    7.04    2.63   0
   1   4   7    6.86    2.44   0
   2  -4   7  664.20    6.21   0
  -2  -4  -7  658.12    5.88   0
  -2   4  -7  666.95    4.92   0
  -2  -4  -7  642.35    7.43   0
   2  -4   7  628.81    4.79   0
   2   4   7  606.65    5.53   0
   2   4   7  608.18    7.05   0
  -3  -4  -7  162.50    4.43   0
  -3  -4  -7  156.35    3.20   0
  -3   4  -7  165.57    2.93   0
   3  -4   7  157.82    3.42   0
   3   4   7  142.99    3.58   0
   3   4   7  143.74    4.11   0
   3  -4   7  159.32    3.93   0
  -4   4  -7    0.73    2.79   0
   4  -4   7    2.73    2.77   0
   4   4   7    2.48    2.65   0
  -4  -4  -7    2.97    2.82   0
   4  -4   7    1.88    2.67   0
   4  -4   7    3.94    2.54   0
  -4  -4  -7    2.39    2.88   0
   4   4   7    2.42    2.79   0
   5   4   7   67.86    3.45   0
   5   4   7   67.38    3.37   0
  -5   4  -7   75.27    3.23   0
   5  -4   7   68.83    4.39   0
   5  -4   7   67.83    4.39   0
  -5  -4  -7   74.09    3.53   0
  -5  -4  -7   70.14    3.46   0
   5  -4   7   73.80    3.05   0
   6   4   7    6.86    3.19   0
   6   4   7    6.00    2.99   0
  -6  -4  -7    8.14    3.09   0
  -6   4  -7   10.15    3.18   0
  -6  -4  -7    6.71    3.63   0
   6  -4   7    5.21    2.81   0
   7   4   7   82.20    3.81   0
   7   4   7   76.47    4.63   0
  -7  -4  -7   89.81    3.87   0
  -7   4  -7   93.86    3.55   0
   7  -4   7   76.64    3.44   0
  -7  -4  -7   84.67    4.12   0
  -8  -4  -7  110.24    6.37   0
  -8  -4  -7  117.25    4.15   0
  -8   4  -7  106.74    3.01   0
   8  -4   7  106.51    2.90   0
   9  -4   7   86.15    3.70   0
  -9  -4  -7   94.09    4.09   0
  -9   4  -7   78.31    2.96   0
 -13  -5   7   56.48    3.57   0
 -13  -5   7   47.53    3.44   0
  13  -5  -7   52.88    3.63   0
 -13   5   7   54.40    3.83   0
 -13  -5   7   58.83    3.69   0
 -13   5   7   56.18    3.57   0
 -12  -5   7    2.00    3.19   0
 -12  -5   7    3.00    3.13   0
 -12  -5   7   -0.15    2.98   0
  12  -5  -7    2.46    3.07   0
 -12   5   7    1.30    2.22   0
 -12   5   7   -0.57    3.09   0
 -11  -5   7    1.80    2.14   0
  11  -5  -7    0.28    2.96   0
 -11   5   7   -0.75    3.07   0
 -11   5   7    1.28    2.09   0
 -10   5   7  151.98    2.90   0
  10  -5  -7  151.90    3.09   0
 -10  -5   7  161.72    3.71   0
 -10   5   7  142.87    3.16   0
  -9   5   7   18.89    2.17   0
   9  -5  -7   20.29    2.91   0
  -9  -5   7   21.27    2.84   0
  -9  -5   7   16.59    2.89   0
  -9   5   7   19.58    2.14   0
  -8  -5   7  329.26    4.25   0
  -8   5   7  328.14    4.41   0
  -8   5   7  326.98    3.67   0
  -8  -5   7  358.42    4.23   0
   8  -5  -7  344.69    4.40   0
  -7   5   7  648.92    5.37   0
  -7   5   7  642.96    4.89   0
  -7  -5   7  678.88    5.24   0
   7  -5  -7  648.57    4.90   0
  -7  -5   7  640.91    4.99   0
  -6  -5   7 1850.23    8.43   0
  -6   5   7 1781.22    8.17   0
  -6   5   7 1883.94    8.45   0
   6  -5  -7 1854.95    8.16   0
  -6  -5   7 1933.90    8.10   0
  -5   5   7 1536.76    7.60   0
  -5   5   7 1557.68    7.78   0
  -5  -5   7 1522.30    7.49   0
  -5  -5   7 1536.66    7.12   0
   5  -5  -7 1513.23    7.23   0
  -4   5   7 1462.85    7.41   0
  -4  -5   7 1564.56    7.85   0
   4  -5  -7 1460.88    7.05   0
  -4  -5   7 1481.79    6.92   0
   3   5  -7 1237.06    6.78   0
  -3  -5   7 1382.46    7.31   0
   3  -5  -7 1296.86    6.72   0
  -3  -5   7 1311.89    6.71   0
  -3   5   7 1226.32    6.53   0
   2   5  -7  423.89    4.20   0
  -2  -5   7  450.53    4.68   0
   2  -5  -7  434.12    4.20   0
  -2  -5   7  456.21    4.63   0
  -2   5   7  426.24    4.48   0
  -1   5   7  463.04    6.38   0
  -1  -5   7  469.79    4.27   0
   1  -5  -7  468.84    4.75   0
   1   5  -7  480.56    4.76   0
  -1  -5   7  475.41    4.82   0
  -1   5   7  437.07    4.55   0
   0  -5  -7    1.10    2.56   0
   0   5  -7    3.73    1.80   0
   0   5   7    0.94    2.68   0
   0  -5   7    1.51    1.86   0
   0  -5   7    6.46    2.42   0
   0   5   7    0.62    2.45   0
  -1   5  -7    0.91    1.87   0
   1  -5   7    1.28    2.52   0
  -1  -5  -7   21.42    1.94   0
   1   5   7    1.11    3.01   0
   1  -5   7    1.26    1.78   0
   1   5   7    2.05    1.70   0
  -2  -5  -7  152.61    3.51   0
   2  -5   7  148.47    3.68   0
  -2   5  -7  161.37    3.49   0
   2   5   7  135.66    3.34   0
   2  -5   7  143.34    2.78   0
   2   5   7  141.94    4.95   0
  -3  -5  -7   87.65    3.99   0
   3  -5   7   89.55    3.43   0
   3  -5   7   85.04    3.41   0
  -3   5  -7   91.48    3.27   0
   3   5   7   86.03    3.13   0
  -3  -5  -7   89.53    3.27   0
   3  -5   7   85.74    2.45   0
   3   5   7   88.44    4.34   0
   4   5   7   76.06    4.27   0
   4  -5   7   73.28    3.50   0
  -4  -5  -7   76.09    3.41   0
  -4  -5  -7   77.00    3.77   0
   4   5   7   70.22    3.17   0
  -4   5  -7   80.84    3.25   0
   4  -5   7   73.30    2.34   0
   4  -5   7   74.31    3.46   0
   5   5   7  490.93    6.85   0
  -5  -5  -7  500.88    5.77   0
   5  -5   7  496.25    7.48   0
  -5   5  -7  544.01    4.89   0
   5   5   7  430.72    4.86   0
   5  -5   7  467.56    6.92   0
   5  -5   7  474.42    4.09   0
  -5  -5  -7  526.89    7.39   0
   6  -5   7  615.54   14.26   0
   6   5   7  647.10    6.75   0
  -6  -5  -7  745.68    7.78   0
   6  -5   7  700.26    5.34   0
  -6   5  -7  742.91    4.99   0
  -6  -5  -7  715.13    7.19   0
   6  -5   7  637.09   13.98   0
   7   5   7  379.12    5.93   0
  -7   5  -7  438.05    4.23   0
  -7  -5  -7  458.15    6.32   0
  -7  -5  -7  431.49    6.27   0
   7  -5   7  415.08    4.03   0
  -8  -5  -7  410.38    6.22   0
  -8   5  -7  442.19    4.80   0
   8  -5   7  369.72    4.00   0
  -8  -5  -7  403.83    7.53   0
   9  -5   7  205.94    4.22   0
  -9  -5  -7  197.65    5.26   0
  -9   5  -7  210.78    4.35   0
 -13  -6   7  138.97    4.12   0
 -13  -6   7  137.85    3.96   0
 -13  -6   7  119.23    4.05   0
 -13  -6   7  118.29    3.93   0
 -13   6   7  123.90    4.29   0
 -13   6   7  121.33    3.82   0
  13  -6  -7  121.17    4.26   0
 -12  -6   7  106.54    2.92   0
 -12  -6   7  109.80    3.07   0
 -12  -6   7  100.88    2.91   0
 -12  -6   7  108.23    2.96   0
  12  -6  -7  101.32    3.09   0
 -12   6   7  104.18    3.90   0
 -12   6   7   99.51    2.78   0
 -11  -6   7   77.12    3.34   0
 -11  -6   7   81.04    2.72   0
  11  -6  -7   84.38    3.52   0
 -11  -6   7   72.66    2.70   0
 -11   6   7   75.43    2.77   0
 -11   6   7   82.41    3.53   0
  10  -6  -7  188.00    3.93   0
 -10  -6   7  178.43    3.86   0
 -10  -6   7  191.76    3.74   0
 -10   6   7  170.61    3.90   0
 -10   6   7  173.42    3.01   0
  -9   6   7  233.16    3.80   0
  -9  -6   7  216.68    3.27   0
  -9  -6   7  241.40    3.88   0
   9  -6  -7  224.91    3.37   0
  -9   6   7  231.12    4.03   0
  -8   6   7  100.40    2.67   0
  -8  -6   7   99.85    2.52   0
  -8  -6   7  103.83    2.67   0
   8  -6  -7  101.63    2.67   0
  -8   6   7   94.62    2.68   0
  -7   6   7   60.68    3.01   0
  -7  -6   7   63.43    3.18   0
   7  -6  -7   56.78    2.91   0
  -7  -6   7   58.42    3.01   0
  -7   6   7   58.87    2.95   0
  -6   6   7   25.12    2.88   0
  -6  -6   7   19.72    2.20   0
   6  -6  -7   20.15    2.76   0
  -6   6   7   18.66    2.04   0
  -6  -6   7   20.10    2.73   0
  -5  -6   7   91.82    2.35   0
  -5   6   7   95.31    2.62   0
  -5  -6   7   97.36    3.37   0
   5  -6  -7   89.09    2.45   0
  -5   6   7   95.48    3.17   0
  -4  -6   7  240.68    3.16   0
  -4   6   7  247.02    4.26   0
  -4  -6   7  242.48    3.41   0
   4  -6  -7  233.27    3.28   0
   4   6  -7  230.88    3.42   0
  -4   6   7  234.79    3.64   0
  -3  -6   7   12.34    1.90   0
  -3   6   7   13.09    2.56   0
   3   6  -7    7.96    2.01   0
   3  -6  -7   11.13    1.78   0
  -3  -6   7   12.07    2.73   0
  -3   6   7    9.02    1.79   0
  -2  -6   7  560.80    4.65   0
  -2   6   7  592.36    6.50   0
  -2  -6   7  589.92    5.15   0
   2  -6  -7  553.03    4.58   0
   2   6  -7  571.47    5.15   0
  -2   6   7  519.18    4.41   0
  -1  -6   7  147.45    2.86   0
  -1   6   7  138.38    4.16   0
   1  -6  -7  153.79    3.44   0
   1   6  -7  158.90    3.44   0
  -1  -6   7  155.86    2.86   0
  -1   6   7  139.89    2.78   0
   0   6  -7   80.84    2.41   0
   0  -6  -7   82.76    3.03   0
   0   6   7   85.86    4.33   0
   0  -6   7   83.44    2.90   0
   0   6   7   78.13    2.94   0
   0  -6   7   84.46    2.96   0
  -1  -6  -7    3.70    1.89   0
  -1   6  -7    2.69    1.85   0
   1  -6   7    5.95    2.61   0
   1   6   7    2.65    1.82   0
   1   6   7    2.96    3.26   0
   1  -6   7    2.26    1.76   0
   2  -6   7   35.54    2.92   0
  -2  -6  -7   36.96    2.82   0
  -2   6  -7   40.64    2.83   0
   2  -6   7   36.76    2.88   0
   2   6   7   34.06    2.74   0
   2  -6   7   35.69    2.08   0
   2   6   7   33.65    4.65   0
   3   6   7    1.36    4.50   0
   3  -6   7    1.38    2.74   0
   3  -6   7    2.23    2.78   0
  -3  -6  -7    1.15    1.89   0
  -3   6  -7    4.42    2.08   0
   3   6   7    0.80    2.71   0
   3  -6   7    1.94    2.71   0
  -4  -6  -7  166.74    3.77   0
   4  -6   7  159.99    4.10   0
   4  -6   7  156.96    4.21   0
   4   6   7  148.36    3.02   0
  -4   6  -7  166.44    3.05   0
   4  -6   7  155.92    3.46   0
   5   6   7   39.41    3.16   0
  -5  -6  -7   46.11    3.25   0
   5  -6   7   42.85    3.93   0
  -5   6  -7   45.17    2.34   0
   5  -6   7   42.44    3.91   0
   5  -6   7   43.20    2.25   0
  -5  -6  -7   43.25    4.84   0
  -6  -6  -7   25.80    3.32   0
   6   6   7   23.70    3.27   0
   6  -6   7   23.76    4.29   0
  -6   6  -7   22.11    3.12   0
   6  -6   7   22.93    4.70   0
  -6  -6  -7   25.00    4.03   0
   6  -6   7   24.88    3.17   0
   7   6   7    1.50    3.16   0
  -7  -6  -7    0.41    3.82   0
  -7  -6  -7    0.84    3.17   0
  -7   6  -7    0.74    3.17   0
   7  -6   7    0.74    2.99   0
  -8   6  -7    0.71    2.39   0
  -8  -6  -7    0.33    4.06   0
  -8  -6  -7    2.31    3.27   0
   8  -6   7    1.32    2.23   0
 -13  -7   7   63.81    3.75   0
 -13  -7   7   62.54    3.75   0
 -13  -7   7   59.25    3.65   0
 -13  -7   7   57.98    2.90   0
 -13   7   7   54.73    3.93   0
  13  -7  -7   48.73    2.93   0
 -13   7   7   53.24    2.75   0
 -12  -7   7    8.55    2.40   0
 -12  -7   7    7.17    3.14   0
 -12  -7   7    8.37    3.24   0
 -12   7   7    8.25    3.33   0
  12  -7  -7    8.47    3.28   0
 -12  -7   7   11.47    2.45   0
 -12   7   7    9.18    2.43   0
  11  -7  -7   89.74    3.60   0
 -11  -7   7   88.94    3.40   0
 -11  -7   7   83.30    2.79   0
 -11  -7   7   91.93    3.52   0
 -11   7   7   80.45    2.85   0
 -11   7   7   94.83    3.52   0
 -10  -7   7  242.91    3.98   0
 -10  -7   7  252.97    4.06   0
 -10  -7   7  236.75    3.53   0
 -10   7   7  240.95    4.21   0
 -10   7   7  243.27    3.34   0
  10  -7  -7  258.51    4.24   0
  -9  -7   7  168.09    3.01   0
  -9  -7   7  173.50    3.88   0
  -9  -7   7  182.31    3.82   0
   9  -7  -7  173.01    3.10   0
  -9   7   7  168.81    3.80   0
  -9   7   7  166.48    2.96   0
   8  -7  -7  400.87    4.50   0
  -8   7   7  390.75    4.58   0
  -8  -7   7  405.11    4.70   0
  -8  -7   7  417.31    4.41   0
  -8   7   7  392.92    3.97   0
  -7   7   7   67.12    2.39   0
  -7  -7   7   72.09    3.12   0
   7  -7  -7   75.68    2.41   0
  -7  -7   7   71.26    2.50   0
  -7   7   7   67.72    3.05   0
  -6   7   7  278.54    3.61   0
  -6  -7   7  289.67    3.87   0
  -6  -7   7  289.14    3.59   0
   6  -7  -7  276.53    3.41   0
  -6   7   7  274.43    3.93   0
  -5   7   7  210.12    3.40   0
  -5  -7   7  217.56    3.05   0
   5  -7  -7  221.32    3.65   0
  -5  -7   7  219.31    3.31   0
  -5   7   7  206.07    3.08   0
  -4   7   7  417.77    4.94   0
  -4  -7   7  403.65    3.85   0
   4  -7  -7  406.65    4.38   0
  -4  -7   7  417.67    4.15   0
   4   7  -7  402.57    4.62   0
  -4   7   7  386.11    3.85   0
  -3   7   7  197.55    3.65   0
   3  -7  -7  196.08    2.95   0
   3   7  -7  198.74    3.68   0
  -3  -7   7  202.07    3.55   0
  -3  -7   7  210.50    3.77   0
  -3   7   7  186.53    2.88   0
  -2   7   7    6.86    2.66   0
   2  -7  -7    6.75    2.53   0
   2   7  -7    5.87    2.61   0
  -2  -7   7    5.28    2.59   0
  -2  -7   7    5.17    1.98   0
  -2   7   7    7.75    2.52   0
  -1   7   7   16.35    2.78   0
   1  -7  -7   16.07    1.92   0
  -1  -7   7   19.73    2.08   0
   1   7  -7   19.72    2.07   0
  -1   7   7   15.52    2.87   0
  -1  -7   7   16.80    1.93   0
  -1   7   7   14.61    1.93   0
   0   7   7   18.80    3.66   0
   0  -7  -7   18.36    1.96   0
   0  -7   7   17.79    2.62   0
   0   7  -7   21.85    1.99   0
   0   7   7   19.16    3.78   0
   0  -7   7   19.45    2.59   0
   0   7   7   16.29    2.59   0
   1  -7   7    3.11    2.54   0
   1  -7   7    2.69    2.61   0
  -1  -7  -7    4.62    2.60   0
  -1   7  -7    0.45    1.86   0
   1   7   7    2.22    1.78   0
   1  -7   7    1.62    1.79   0
  -2  -7  -7   11.24    1.99   0
   2  -7   7   10.47    2.00   0
  -2   7  -7   14.52    2.85   0
   2   7   7    8.96    2.67   0
   2  -7   7    9.86    1.97   0
   2  -7   7   10.19    2.68   0
  -3  -7  -7    3.47    2.72   0
   3  -7   7    3.21    2.72   0
   3   7   7    3.27    1.91   0
  -3   7  -7    2.36    1.95   0
   3  -7   7    0.99    1.99   0
   3  -7   7    2.33    1.88   0
  -4  -7  -7  149.79    3.09   0
   4  -7   7  153.58    4.04   0
   4  -7   7  152.84    3.97   0
  -4   7  -7  172.51    3.61   0
   4   7   7  137.97    2.95   0
   4  -7   7  150.41    2.77   0
   5  -7   7   98.13    3.78   0
  -5  -7  -7   96.12    3.61   0
   5   7   7   91.34    3.48   0
  -5   7  -7  104.99    3.44   0
   5  -7   7   97.98    3.87   0
   5  -7   7   94.63    2.58   0
   6   7   7   48.45    2.62   0
  -6  -7  -7   56.72    3.49   0
  -6   7  -7   58.00    2.47   0
   6  -7   7   52.64    4.41   0
   6  -7   7   52.47    4.41   0
   6  -7   7   53.73    3.19   0
  -7  -7  -7   19.77    3.39   0
   7   7   7   19.40    3.39   0
  -7   7  -7   24.06    2.33   0
  -7  -7  -7   22.53    6.19   0
   7  -7   7   20.09    2.29   0
  -8  -7  -7   19.76    5.25   0
  -8  -7  -7   20.60    3.59   0
  -8   7  -7   23.12    3.51   0
   8  -7   7   19.75    3.31   0
 -12  -8   7   25.08    2.59   0
 -12   8   7   32.57    3.50   0
 -12  -8   7   32.77    2.57   0
  12  -8  -7   29.44    2.52   0
 -12  -8   7   30.07    3.34   0
 -12  -8   7   34.41    3.45   0
 -12   8   7   29.46    3.50   0
  11  -8  -7  119.38    3.86   0
 -11  -8   7  127.07    3.91   0
 -11  -8   7  118.20    3.62   0
 -11  -8   7  125.81    3.80   0
 -11   8   7  121.03    3.84   0
 -11   8   7  116.82    3.67   0
 -10  -8   7    9.60    2.09   0
 -10  -8   7    7.48    3.28   0
 -10  -8   7    9.92    3.02   0
 -10   8   7    7.89    3.13   0
  10  -8  -7    7.22    2.21   0
 -10   8   7    6.70    3.17   0
  -9  -8   7   89.86    2.63   0
  -9  -8   7   95.95    2.78   0
   9  -8  -7   98.51    3.44   0
  -9   8   7   95.55    3.48   0
  -9  -8   7   99.66    3.36   0
  -9   8   7   98.96    3.39   0
  -8  -8   7   46.93    2.22   0
  -8  -8   7   42.74    2.26   0
  -8  -8   7   44.15    2.46   0
   8  -8  -7   41.04    2.26   0
  -8   8   7   41.63    3.09   0
  -8   8   7   40.50    2.29   0
  -7  -8   7   70.21    3.04   0
  -7  -8   7   73.97    3.18   0
  -7  -8   7   64.08    2.47   0
   7  -8  -7   69.09    3.09   0
  -7   8   7   67.24    3.07   0
  -7   8   7   71.65    3.27   0
  -6  -8   7  315.60    4.28   0
  -6  -8   7  311.83    4.08   0
   6  -8  -7  303.60    3.45   0
  -6   8   7  308.83    4.10   0
  -6   8   7  300.70    3.82   0
  -5  -8   7  222.90    3.06   0
  -5  -8   7  239.68    3.97   0
   5  -8  -7  236.72    3.72   0
  -5   8   7  208.25    3.07   0
  -5   8   7  217.64    3.42   0
   4  -8  -7  192.44    3.45   0
   4   8  -7  172.62    3.08   0
  -4   8   7  183.08    3.43   0
  -4  -8   7  195.78    3.11   0
  -4  -8   7  183.97    2.88   0
  -4   8   7  186.19    3.85   0
   3  -8  -7  143.53    2.64   0
   3   8  -7  134.29    3.42   0
  -3  -8   7  141.29    2.84   0
  -3  -8   7  141.35    3.24   0
  -3   8   7  129.00    2.60   0
  -3   8   7  139.75    3.73   0
  -2  -8   7  349.82    3.70   0
   2  -8  -7  366.57    3.65   0
   2   8  -7  362.14    4.34   0
  -2  -8   7  380.63    3.87   0
  -2  -8   7  384.62    4.31   0
  -2   8   7  347.57    3.66   0
  -2   8   7  377.80    5.53   0
  -1  -8   7 1057.68    5.97   0
   1  -8  -7 1148.41    6.41   0
   1   8  -7 1161.35    6.48   0
  -1  -8   7 1123.76    6.20   0
  -1   8   7 1106.45   10.39   0
  -1  -8   7 1186.60    6.44   0
  -1   8   7 1078.92    6.16   0
  -1   8   7 1145.58   10.53   0
   0  -8  -7  113.42    3.23   0
   0  -8   7  106.59    3.14   0
   0  -8   7  113.77    3.13   0
   0   8  -7  110.76    2.56   0
   0   8   7  108.86    6.12   0
   0   8   7  104.31    3.10   0
   0   8   7  100.78    5.85   0
   0  -8   7  107.35    2.61   0
  -1  -8  -7  294.77    3.51   0
   1  -8   7  300.44    4.18   0
   1  -8   7  296.62    3.70   0
   1   8   7  271.32    3.36   0
  -1   8  -7  308.30    3.48   0
   1  -8   7  307.50    3.91   0
   2  -8   7  205.50    3.88   0
  -2  -8  -7  204.28    3.74   0
   2  -8   7  198.98    3.82   0
  -2   8  -7  208.13    3.11   0
   2   8   7  189.70    3.59   0
   2  -8   7  211.73    3.54   0
  -3  -8  -7    0.50    1.92   0
   3   8   7    2.16    1.90   0
   3  -8   7    2.10    2.80   0
  -3   8  -7    1.95    1.97   0
   3  -8   7    1.45    1.96   0
   3  -8   7    2.46    2.82   0
  -4  -8  -7    7.74    2.81   0
   4   8   7    8.56    2.90   0
   4  -8   7    8.75    2.93   0
  -4   8  -7   10.38    2.12   0
   4  -8   7    8.43    2.94   0
   4  -8   7   10.10    2.77   0
  -5  -8  -7   77.47    2.69   0
   5  -8   7   81.19    3.62   0
   5   8   7   74.23    3.42   0
   5  -8   7   77.88    3.69   0
  -5   8  -7   83.06    2.66   0
   5  -8   7   80.28    3.27   0
  -6  -8  -7   51.16    2.58   0
   6   8   7   48.50    3.43   0
  -6   8  -7   57.86    3.34   0
   6  -8   7   48.71    3.68   0
   6  -8   7   54.27    3.15   0
   6  -8   7   52.79    4.30   0
   7   8   7    2.99    3.26   0
  -7  -8  -7    4.82    3.21   0
  -7   8  -7    6.82    2.36   0
   7  -8   7    6.62    2.20   0
  -8  -8  -7   17.34    3.56   0
  -8   8  -7   17.91    3.50   0
   8  -8   7   19.68    3.31   0
  12  -9  -7   60.23    3.68   0
 -12  -9   7   58.34    2.69   0
 -12  -9   7   70.66    3.87   0
 -12  -9   7   66.20    2.81   0
 -12   9   7   60.16    2.88   0
 -12   9   7   59.86    2.74   0
 -11  -9   7    8.48    2.24   0
 -11  -9   7   10.08    2.42   0
 -11   9   7    8.21    2.42   0
 -11  -9   7   12.01    3.33   0
 -11   9   7   18.74    3.28   0
  11  -9  -7   11.65    3.25   0
 -10  -9   7   73.43    3.21   0
 -10  -9   7   76.08    2.72   0
 -10   9   7   67.31    3.47   0
  10  -9  -7   71.86    3.44   0
 -10  -9   7   69.63    2.53   0
 -10   9   7   73.21    3.42   0
  -9  -9   7  241.24    3.34   0
  -9  -9   7  241.66    3.94   0
  -9  -9   7  257.86    4.28   0
   9  -9  -7  245.16    4.13   0
  -9   9   7  229.63    3.52   0
  -9   9   7  238.80    3.39   0
  -8  -9   7    2.71    2.81   0
  -8  -9   7    4.26    2.86   0
   8  -9  -7    2.66    2.08   0
  -8   9   7    2.69    2.01   0
  -8  -9   7    1.93    3.08   0
  -8   9   7    7.21    2.07   0
  -7  -9   7   18.63    2.99   0
  -7  -9   7   18.33    2.89   0
  -7  -9   7   17.20    2.97   0
   7  -9  -7   18.44    2.11   0
  -7   9   7   13.17    2.10   0
  -7   9   7   16.26    3.00   0
  -6  -9   7    5.71    2.74   0
   6  -9  -7    6.83    2.75   0
  -6  -9   7    5.89    2.75   0
  -6  -9   7    4.18    2.77   0
  -6   9   7    5.35    2.01   0
  -6   9   7    5.10    2.05   0
  -5  -9   7    1.58    1.83   0
   5  -9  -7    4.86    1.97   0
  -5  -9   7    5.27    2.79   0
  -5  -9   7    4.56    1.84   0
  -5   9   7    5.64    2.69   0
  -5   9   7    3.65    2.79   0
  -4  -9   7    9.38    1.88   0
   4  -9  -7   10.05    1.87   0
   4   9  -7    9.61    2.04   0
  -4  -9   7    7.82    2.03   0
  -4   9   7    9.41    1.86   0
  -4  -9   7    7.04    1.91   0
  -4   9   7    9.97    2.77   0
  -3  -9   7   15.06    2.62   0
   3  -9  -7   14.60    1.97   0
   3   9  -7   16.02    2.04   0
  -3  -9   7   18.58    2.88   0
  -3   9   7   17.10    2.69   0
  -3  -9   7   16.42    1.98   0
  -3   9   7   15.77    2.95   0
   2  -9  -7   -0.11    1.80   0
  -2  -9   7   -0.67    1.91   0
   2   9  -7    0.12    2.87   0
  -2  -9   7    2.95    1.99   0
  -2   9   7    0.86    2.55   0
  -2  -9   7    0.92    1.85   0
  -2   9   7    0.36    2.67   0
   1  -9  -7  156.60    3.37   0
  -1  -9   7  151.63    3.36   0
   1   9  -7  152.63    3.48   0
  -1  -9   7  153.63    2.76   0
  -1   9   7  139.96    3.30   0
  -1   9   7  151.12    5.25   0
  -1   9   7  138.10    4.48   0
  -1  -9   7  146.21    3.41   0
   0  -9  -7   76.50    3.09   0
   0   9   7   72.46    3.09   0
   0  -9   7   72.57    2.47   0
   0   9  -7   74.83    2.45   0
   0  -9   7   77.87    2.46   0
   0  -9   7   76.47    3.14   0
   1  -9   7  155.43    2.99   0
  -1  -9  -7  164.33    2.87   0
   1  -9   7  155.00    3.02   0
  -1   9  -7  173.11    3.50   0
   1   9   7  143.93    2.72   0
   1  -9   7  167.27    3.45   0
  -2  -9  -7  238.99    3.95   0
   2  -9   7  229.47    3.49   0
   2  -9   7  245.31    4.07   0
   2   9   7  222.69    3.75   0
  -2   9  -7  256.14    3.86   0
   2  -9   7  243.45    3.09   0
   3  -9   7    7.91    2.04   0
  -3  -9  -7   10.16    2.04   0
   3  -9   7    7.79    2.96   0
  -3   9  -7   10.35    2.86   0
   3   9   7    4.15    2.10   0
   3  -9   7    6.15    1.97   0
  -4  -9  -7    1.22    2.03   0
   4   9   7    1.80    2.09   0
   4  -9   7    1.69    2.92   0
  -4   9  -7    0.33    2.08   0
   4  -9   7    1.12    2.01   0
   4  -9   7    1.77    2.95   0
  -5  -9  -7   11.60    3.06   0
   5  -9   7   11.08    3.17   0
   5  -9   7   11.65    3.17   0
  -5   9  -7   11.66    2.18   0
   5  -9   7   12.47    2.17   0
   5   9   7   10.77    3.14   0
   6  -9   7    0.86    3.86   0
  -6  -9  -7    0.86    2.21   0
   6   9   7    0.64    3.19   0
  -6   9  -7    2.39    3.19   0
   6  -9   7    1.75    3.21   0
   6  -9   7    3.70    3.03   0
   7   9   7    3.85    3.36   0
  -7  -9  -7    3.07    3.35   0
  -7   9  -7    6.29    3.40   0
   7  -9   7    4.91    2.22   0
   7  -9   7    3.82    4.07   0
   7  -9   7    3.52    4.72   0
 -11 -10   7  294.78    3.78   0
 -11 -10   7  345.03    4.90   0
 -11  10   7  302.69    4.86   0
 -11 -10   7  301.28    3.88   0
  11 -10  -7  313.73    4.77   0
 -11  10   7  320.21    4.44   0
 -10 -10   7  225.93    3.33   0
 -10 -10   7  256.71    4.38   0
 -10  10   7  219.81    3.57   0
  10 -10  -7  232.52    3.56   0
 -10  10   7  223.82    3.39   0
 -10 -10   7  235.24    3.46   0
  -9 -10   7  358.95    3.89   0
  -9 -10   7  350.80    3.78   0
   9 -10  -7  360.51    4.01   0
  -9 -10   7  372.11    4.21   0
  -9  10   7  370.73    4.63   0
  -9  10   7  367.92    4.66   0
  -8 -10   7    5.32    2.92   0
  -8 -10   7    3.78    2.96   0
  -8 -10   7    5.55    3.06   0
   8 -10  -7    9.23    2.99   0
  -8  10   7    4.07    2.14   0
  -8  10   7    2.64    3.06   0
  -7 -10   7   21.77    2.09   0
   7 -10  -7   21.49    2.97   0
  -7 -10   7   21.96    2.25   0
  -7 -10   7   21.09    2.91   0
  -7  10   7   20.74    3.01   0
  -7  10   7   21.79    2.22   0
  -6 -10   7  258.06    3.76   0
   6 -10  -7  256.29    3.32   0
  -6 -10   7  274.65    3.60   0
  -6  10   7  251.56    3.79   0
  -6 -10   7  263.48    3.81   0
  -6  10   7  250.94    3.57   0
  -5 -10   7   19.06    1.96   0
   5 -10  -7   18.33    2.07   0
  -5 -10   7   13.15    2.93   0
  -5  10   7   14.47    2.88   0
  -5  10   7   17.42    2.16   0
  -5 -10   7   17.77    2.02   0
  -4 -10   7  206.47    2.97   0
   4 -10  -7  210.67    3.63   0
  -4 -10   7  204.61    2.93   0
   4  10  -7  209.28    3.78   0
  -4 -10   7  223.21    3.84   0
  -4  10   7  200.27    3.65   0
  -4  10   7  211.27    4.11   0
  -3 -10   7  815.26    5.45   0
   3 -10  -7  785.00    4.93   0
  -3 -10   7  750.26    4.86   0
   3  10  -7  758.63    5.58   0
  -3 -10   7  823.81    5.27   0
  -3  10   7  781.05    5.33   0
  -3  10   7  775.16    6.91   0
  -2 -10   7   46.74    2.24   0
   2 -10  -7   51.07    2.88   0
  -2 -10   7   45.95    2.21   0
   2  10  -7   47.07    3.11   0
  -2  10   7   47.09    2.15   0
  -2 -10   7   52.95    3.03   0
  -2  10   7   46.57    3.27   0
   1 -10  -7 1897.42    7.40   0
  -1 -10   7 2005.30    8.08   0
  -1 -10   7 1918.06    8.00   0
  -1  10   7 1879.96   14.40   0
   1  10  -7 1989.20    8.12   0
  -1 -10   7 2000.67    8.03   0
  -1  10   7 1827.54    7.62   0
  -1  10   7 1881.46   14.05   0
   0 -10  -7 1042.36    5.75   0
   0 -10   7 1019.62    5.85   0
   0  10  -7 1095.35    6.34   0
   0  10   7  954.73    5.53   0
   0 -10   7 1052.79    5.71   0
   0 -10   7 1092.28    6.43   0
  -1 -10  -7  303.00    3.98   0
   1 -10   7  277.39    3.55   0
  -1  10  -7  284.50    3.45   0
   1  10   7  256.79    3.25   0
   1 -10   7  296.69    3.93   0
   1 -10   7  279.80    4.14   0
  -2 -10  -7  819.25    5.69   0
   2 -10   7  764.20    5.66   0
   2 -10   7  765.30    5.63   0
  -2  10  -7  828.37    5.51   0
   2 -10   7  809.54    5.35   0
   2  10   7  723.69    5.42   0
  -3 -10  -7  306.09    4.26   0
   3 -10   7  297.06    3.91   0
   3  10   7  280.53    4.14   0
   3 -10   7  296.90    3.95   0
  -3  10  -7  330.20    4.16   0
   3 -10   7  316.12    4.02   0
   4 -10   7  374.03    5.05   0
  -4 -10  -7  388.10    4.71   0
   4  10   7  362.11    4.57   0
   4 -10   7  364.75    4.45   0
  -4  10  -7  411.25    3.92   0
   4 -10   7  382.49    3.76   0
  -5 -10  -7    2.41    2.23   0
   5  10   7    3.44    3.17   0
   5 -10   7    2.38    3.11   0
  -5  10  -7    5.48    2.23   0
   5 -10   7    3.66    3.13   0
   5 -10   7    5.92    3.00   0
  -6 -10  -7   26.87    2.53   0
   6  10   7   23.80    2.48   0
   6 -10   7   32.50    3.57   0
  -6  10  -7   29.72    3.48   0
   6 -10   7   27.54    3.53   0
   6 -10   7   29.51    2.43   0
   7  10   7    0.45    3.42   0
  -7 -10  -7    0.63    2.39   0
  -7  10  -7    2.73    3.33   0
   7 -10   7    0.16    4.18   0
   7 -10   7    1.65    3.27   0
   7 -10   7    0.73    4.10   0
 -11 -11   7    3.01    2.29   0
 -11 -11   7    1.40    3.43   0
 -11  11   7    1.80    2.52   0
  11 -11  -7    1.25    2.42   0
 -11  11   7    2.43    3.44   0
 -11 -11   7    2.95    3.25   0
 -10 -11   7   21.64    3.35   0
 -10 -11   7   17.93    2.32   0
 -10 -11   7   18.00    3.44   0
  10 -11  -7   16.77    2.44   0
 -10  11   7   18.19    2.50   0
 -10  11   7   20.09    2.46   0
  -9 -11   7    7.30    2.22   0
  -9 -11   7    7.14    3.13   0
  -9 -11   7    7.24    3.25   0
   9 -11  -7    7.54    2.25   0
  -9  11   7    6.84    2.34   0
  -9  11   7    7.91    3.19   0
  -8 -11   7   60.79    2.70   0
  -8 -11   7   58.99    3.15   0
  -8 -11   7   58.54    2.43   0
   8 -11  -7   55.33    3.25   0
  -8  11   7   49.93    2.44   0
  -8  11   7   55.80    3.41   0
  -7 -11   7  100.43    3.34   0
   7 -11  -7  102.39    2.72   0
  -7 -11   7  109.33    3.57   0
  -7  11   7  104.78    3.40   0
  -7 -11   7   93.10    2.61   0
  -7  11   7  103.12    3.60   0
  -6 -11   7   93.82    2.52   0
   6 -11  -7  103.46    3.32   0
  -6 -11   7  104.78    3.44   0
  -6  11   7   84.48    2.51   0
  -6  11   7   94.88    3.56   0
  -6 -11   7   97.69    2.50   0
  -5 -11   7  306.79    3.35   0
   5 -11  -7  334.33    4.11   0
  -5 -11   7  313.26    3.38   0
  -5 -11   7  340.77    3.81   0
  -5  11   7  321.01    4.14   0
  -5  11   7  317.22    4.59   0
   4 -11  -7    6.33    2.02   0
  -4 -11   7    5.83    1.83   0
  -4 -11   7    8.55    2.68   0
  -4 -11   7    5.34    2.82   0
  -4  11   7    4.13    1.98   0
   4  11  -7    8.21    3.01   0
  -4  11   7    6.12    3.00   0
   3 -11  -7    2.76    1.91   0
  -3 -11   7    0.63    2.77   0
  -3 -11   7   -0.44    1.98   0
   3  11  -7    2.39    2.88   0
  -3  11   7    1.50    2.73   0
  -3 -11   7    1.25    2.73   0
  -3  11   7    1.06    2.83   0
   2 -11  -7   65.83    2.33   0
  -2 -11   7   64.48    2.37   0
  -2 -11   7   60.38    2.34   0
   2  11  -7   70.84    3.22   0
  -2  11   7   59.68    2.24   0
  -2 -11   7   65.41    3.10   0
  -2  11   7   64.63    3.51   0
   1 -11  -7   98.92    2.52   0
  -1 -11   7   91.80    2.56   0
  -1 -11   7  101.53    3.29   0
  -1  11   7   84.84    2.44   0
   1  11  -7   95.71    2.67   0
  -1 -11   7   98.48    3.30   0
  -1  11   7   96.16    4.97   0
   0 -11  -7  166.61    2.97   0
   0 -11   7  174.08    3.75   0
   0 -11   7  167.83    3.09   0
   0  11  -7  173.47    3.08   0
   0 -11   7  178.06    3.68   0
   0  11   7  162.71    3.60   0
  -1 -11  -7  317.56    4.14   0
  -1  11  -7  302.26    3.57   0
   1 -11   7  296.24    3.62   0
   1  11   7  274.82    3.35   0
   1 -11   7  306.22    3.49   0
   1 -11   7  300.24    3.65   0
  -2 -11  -7   21.33    3.07   0
   2 -11   7   20.51    3.12   0
   2  11   7   20.04    2.92   0
  -2  11  -7   21.59    3.26   0
   2 -11   7   20.47    2.14   0
   2 -11   7   18.65    2.27   0
  -3 -11  -7   33.95    2.34   0
  -3  11  -7   32.91    3.12   0
   3  11   7   27.54    2.30   0
   3 -11   7   32.32    3.24   0
   3 -11   7   28.85    3.23   0
   3 -11   7   32.47    3.05   0
  -4 -11  -7    1.80    2.08   0
   4  11   7    2.68    3.08   0
   4 -11   7    0.17    3.15   0
   4 -11   7    1.67    3.05   0
  -4  11  -7    1.30    2.19   0
   4 -11   7    1.72    2.15   0
  -5 -11  -7    9.87    3.16   0
   5  11   7    7.27    2.39   0
  -5  11  -7    9.99    2.30   0
   5 -11   7   10.41    3.25   0
   5 -11   7    8.64    3.09   0
   5 -11   7    8.83    3.33   0
  -6 -11  -7    4.90    3.30   0
   6  11   7    2.87    3.40   0
   6 -11   7    3.22    3.35   0
  -6  11  -7    3.59    3.37   0
   6 -11   7    3.54    3.40   0
   6 -11   7    3.88    3.11   0
 -10  12   7  220.01    4.39   0
 -10 -12   7  213.09    3.51   0
 -10 -12   7  221.42    3.90   0
 -10 -12   7  206.29    3.47   0
 -10  12   7  224.27    4.22   0
  10 -12  -7  201.78    3.62   0
  -9 -12   7   49.11    2.46   0
  -9 -12   7   54.88    3.37   0
   9 -12  -7   54.44    3.50   0
  -9 -12   7   67.31    3.59   0
  -9  12   7   53.92    2.62   0
  -9  12   7   59.67    2.70   0
  -8 -12   7  354.72    3.79   0
  -8 -12   7  401.94    4.88   0
  -8  12   7  328.42    3.88   0
  -8 -12   7  344.26    3.82   0
   8 -12  -7  360.71    3.98   0
  -8  12   7  359.72    4.75   0
  -7 -12   7  440.08    4.03   0
   7 -12  -7  463.24    4.75   0
  -7 -12   7  469.39    4.53   0
  -7  12   7  416.46    4.12   0
  -7 -12   7  426.00    3.93   0
  -7  12   7  442.08    5.00   0
  -6 -12   7  309.07    3.53   0
   6 -12  -7  314.39    3.57   0
  -6 -12   7  325.90    4.07   0
  -6 -12   7  352.55    4.54   0
  -6  12   7  288.47    3.54   0
  -6  12   7  321.09    4.59   0
   5 -12  -7    3.79    2.88   0
  -5 -12   7    2.70    2.84   0
  -5 -12   7    5.97    2.81   0
  -5  12   7    1.78    2.07   0
  -5 -12   7    3.33    2.96   0
  -5  12   7    2.46    2.14   0
   4 -12  -7  364.79    3.65   0
  -4 -12   7  372.20    4.28   0
  -4 -12   7  357.23    4.24   0
  -4  12   7  337.50    3.61   0
  -4 -12   7  381.85    3.98   0
   4  12  -7  341.04    4.52   0
  -4  12   7  354.42    4.97   0
   3 -12  -7  245.79    3.20   0
  -3 -12   7  235.83    3.23   0
  -3 -12   7  238.49    3.20   0
   3  12  -7  237.08    3.37   0
  -3  12   7  224.88    3.15   0
  -3 -12   7  270.62    4.02   0
  -3  12   7  226.59    4.59   0
   2 -12  -7  539.65    4.21   0
  -2 -12   7  553.16    4.81   0
  -2 -12   7  558.47    4.46   0
   2  12  -7  515.50    4.39   0
  -2 -12   7  523.80    4.18   0
  -2  12   7  516.68    4.65   0
  -2  12   7  529.26    6.64   0
   1 -12  -7  726.86    4.82   0
  -1 -12   7  705.44    4.79   0
   1  12  -7  752.83    5.50   0
  -1 -12   7  695.55    4.78   0
  -1  12   7  666.77    4.63   0
  -1  12   7  752.66   10.66   0
  -1 -12   7  761.01    4.97   0
   0 -12  -7 1284.03    6.24   0
   0  12   7 1191.60    6.35   0
   0 -12   7 1286.61    6.85   0
   0 -12   7 1279.90    6.83   0
   0  12  -7 1259.54    6.24   0
   0 -12   7 1343.91    6.76   0
  -1 -12  -7  916.40    5.35   0
   1 -12   7  906.58    6.12   0
  -1  12  -7  928.36    5.43   0
   1  12   7  846.46    5.22   0
   1 -12   7  914.66    6.19   0
   1 -12   7  922.23    5.36   0
  -2 -12  -7   33.74    2.26   0
   2  12   7   30.39    2.31   0
   2 -12   7   29.44    3.22   0
  -2  12  -7   38.08    3.27   0
   2 -12   7   39.10    3.15   0
   2 -12   7   32.98    3.22   0
  -3 -12  -7  114.94    3.54   0
   3  12   7  102.12    3.47   0
  -3  12  -7  120.55    3.64   0
   3 -12   7  101.91    2.90   0
   3 -12   7  108.23    3.68   0
   3 -12   7  108.78    2.73   0
  -4 -12  -7  164.84    3.11   0
   4 -12   7  163.90    4.07   0
  -4  12  -7  171.76    3.13   0
   4 -12   7  164.80    4.04   0
   4  12   7  151.29    3.79   0
   4 -12   7  161.02    3.08   0
   5 -12   7  118.00    3.36   0
  -5 -12  -7  144.75    3.87   0
   5  12   7  114.48    3.04   0
  -5  12  -7  143.92    3.77   0
   5 -12   7  116.63    3.35   0
   5 -12   7  135.04    3.66   0
  -6 -12  -7   25.41    3.54   0
   6  12   7   21.84    2.62   0
  -6  12  -7   27.40    2.61   0
   6 -12   7   23.77    3.64   0
   6 -12   7   21.67    3.67   0
   6 -12   7   31.42    3.40   0
  -9 -13   7   16.45    2.29   0
   9 -13  -7   16.36    2.48   0
  -9 -13   7   13.44    3.38   0
  -9  13   7   16.97    3.50   0
  -9 -13   7   18.80    2.47   0
  -9  13   7   16.52    3.40   0
  -8  13   7   20.22    3.40   0
   8 -13  -7   18.16    2.40   0
  -8 -13   7   18.08    2.48   0
  -8 -13   7   18.89    2.41   0
  -8 -13   7   17.19    2.41   0
  -8  13   7   23.74    3.47   0
   7 -13  -7   51.85    3.28   0
  -7 -13   7   47.58    2.41   0
  -7  13   7   46.43    3.26   0
  -7 -13   7   55.69    3.43   0
  -7  13   7   50.81    2.66   0
  -7 -13   7   47.26    2.54   0
  -6 -13   7  133.32    3.53   0
  -6 -13   7  132.63    3.49   0
   6 -13  -7  128.86    2.94   0
  -6  13   7  128.11    3.67   0
  -6 -13   7  134.67    3.81   0
  -6  13   7  125.10    3.06   0
  -5 -13   7  158.23    3.74   0
   5 -13  -7  159.39    3.66   0
  -5 -13   7  154.55    2.83   0
  -5 -13   7  155.20    3.51   0
  -5  13   7  150.84    3.58   0
  -5  13   7  139.20    3.21   0
   4 -13  -7   93.64    2.59   0
  -4 -13   7   91.53    2.56   0
  -4 -13   7   85.97    2.60   0
   4  13  -7   88.75    3.54   0
  -4  13   7   83.82    2.64   0
  -4 -13   7   99.78    3.40   0
  -4  13   7   90.44    3.67   0
   3 -13  -7  633.01    4.54   0
  -3  13   7  595.84    4.50   0
   3  13  -7  580.86    4.70   0
  -3 -13   7  652.86    5.08   0
  -3 -13   7  646.01    5.13   0
  -3  13   7  637.29    6.65   0
  -3 -13   7  661.01    4.87   0
  -2 -13   7  121.20    2.71   0
   2 -13  -7  133.47    3.39   0
   2  13  -7  127.89    3.67   0
  -2  13   7  123.40    3.40   0
  -2 -13   7  129.40    2.77   0
  -2  13   7  128.11    4.21   0
  -2 -13   7  131.63    2.86   0
   1 -13  -7   17.06    3.10   0
  -1  13   7   15.99    2.20   0
  -1 -13   7   24.49    3.04   0
   1  13  -7   19.49    3.19   0
  -1  13   7   20.83    4.88   0
  -1 -13   7   20.26    2.21   0
  -1 -13   7   22.67    3.00   0
   0 -13  -7  105.75    3.50   0
   0 -13   7  106.39    3.56   0
   0  13   7   98.90    3.47   0
   0  13  -7  106.85    2.73   0
   0 -13   7  103.17    3.48   0
   0 -13   7  103.65    2.66   0
  -1 -13  -7   14.75    3.11   0
  -1  13  -7   15.95    2.31   0
   1 -13   7   17.78    2.29   0
   1 -13   7   20.37    3.09   0
   1  13   7   18.57    2.24   0
   1 -13   7   18.03    2.20   0
  -2 -13  -7   36.18    3.23   0
   2 -13   7   33.94    3.26   0
   2  13   7   31.91    3.22   0
  -2  13  -7   37.76    3.24   0
   2 -13   7   30.55    2.42   0
   2 -13   7   35.73    3.22   0
   3  13   7  141.29    3.04   0
  -3 -13  -7  172.97    3.86   0
   3 -13   7  156.16    3.29   0
  -3  13  -7  164.09    3.96   0
   3 -13   7  147.72    3.25   0
   3 -13   7  170.05    3.85   0
  -4 -13  -7   80.32    3.60   0
   4  13   7   63.92    3.58   0
   4 -13   7   65.63    2.86   0
   4 -13   7   68.90    2.87   0
  -4  13  -7   70.34    3.59   0
   4 -13   7   71.37    3.49   0
  -5 -13  -7   56.25    2.74   0
   5 -13   7   50.27    3.80   0
   5  13   7   48.42    2.78   0
  -5  13  -7   67.24    3.65   0
   5 -13   7   48.80    3.76   0
   5 -13   7   63.84    3.44   0
  -9 -14   7   12.93    2.40   0
  -9 -14   7   10.94    2.49   0
  -9 -14   7   13.21    3.39   0
  -9  14   7   14.60    3.53   0
  -8  14   7    3.93    3.30   0
  -8 -14   7    3.78    2.24   0
  -8 -14   7    4.17    3.38   0
  -8  14   7    5.74    3.51   0
  -8 -14   7    4.79    3.29   0
   8 -14  -7    4.69    2.30   0
  -7  14   7    5.74    2.36   0
  -7 -14   7    6.32    3.25   0
   7 -14  -7    7.46    3.11   0
  -7 -14   7    5.88    3.23   0
  -7  14   7    7.66    2.40   0
  -7 -14   7    7.27    2.17   0
  -6 -14   7   14.00    2.34   0
   6 -14  -7   13.05    3.14   0
  -6 -14   7    9.42    2.20   0
  -6  14   7   12.19    3.28   0
  -6 -14   7   12.57    2.30   0
  -6  14   7   14.42    3.27   0
  -5 -14   7   42.58    3.14   0
   5 -14  -7   39.48    2.44   0
  -5 -14   7   39.93    3.25   0
  -5  14   7   39.24    2.49   0
  -5 -14   7   45.79    3.28   0
  -5  14   7   39.60    2.60   0
   4 -14  -7  200.92    3.89   0
  -4 -14   7  189.03    3.10   0
  -4  14   7  183.86    3.87   0
   4  14  -7  167.41    3.35   0
  -4 -14   7  194.28    3.75   0
  -4 -14   7  194.44    3.30   0
  -4  14   7  185.59    4.34   0
   3 -14  -7   25.13    3.02   0
   3  14  -7   23.46    2.38   0
  -3  14   7   24.89    2.38   0
  -3 -14   7   23.05    2.30   0
  -3 -14   7   24.71    2.29   0
  -3  14   7   24.98    3.49   0
  -3 -14   7   22.77    2.30   0
   2 -14  -7   88.38    2.54   0
  -2 -14   7   85.11    2.55   0
   2  14  -7   83.41    3.56   0
  -2  14   7   84.51    3.32   0
  -2  14   7   85.83    4.07   0
  -2 -14   7   85.02    2.60   0
  -2 -14   7   87.99    3.41   0
   1 -14  -7  128.19    2.77   0
  -1 -14   7  133.67    3.50   0
   1  14  -7  130.26    3.72   0
  -1  14   7  119.99    2.73   0
  -1  14   7  128.20    7.18   0
  -1 -14   7  131.39    2.92   0
  -1 -14   7  126.84    3.73   0
   0 -14  -7  596.51    5.16   0
   0  14   7  510.69    4.31   0
   0 -14   7  586.84    5.12   0
   0  14  -7  564.66    4.69   0
   0 -14   7  528.41    4.40   0
   0 -14   7  574.80    4.60   0
  -1 -14  -7  248.33    3.29   0
   1 -14   7  236.14    4.14   0
   1 -14   7  249.76    4.11   0
  -1  14  -7  239.41    3.42   0
   1 -14   7  248.55    3.37   0
   1  14   7  229.22    3.90   0
  -2 -14  -7   10.01    2.31   0
   2  14   7    9.92    2.27   0
   2 -14   7    9.39    2.35   0
   2 -14   7   13.38    3.21   0
  -2  14  -7   10.70    2.48   0
   2 -14   7   10.39    2.23   0
  -3 -14  -7   -1.41    3.21   0
   3  14   7   -0.25    2.39   0
  -3  14  -7    0.77    2.32   0
   3 -14   7    2.08    3.22   0
   3 -14   7   -0.24    2.29   0
   3 -14   7    1.11    2.32   0
  -4 -14  -7    2.41    2.38   0
   4  14   7    1.80    3.43   0
   4 -14   7    2.89    3.30   0
   4 -14   7    1.21    2.39   0
  -4  14  -7    0.26    2.40   0
   4 -14   7    2.33    2.28   0
  -7 -15   7   10.94    2.35   0
   7 -15  -7    9.87    2.52   0
  -7 -15   7   11.71    2.26   0
  -7  15   7   12.64    2.42   0
  -7 -15   7   12.77    2.44   0
  -7  15   7   11.39    3.54   0
  -6 -15   7    2.42    3.12   0
   6 -15  -7    3.97    2.30   0
  -6 -15   7    6.56    3.24   0
  -6 -15   7    2.90    2.28   0
  -6  15   7    2.23    2.38   0
  -6  15   7    1.57    2.35   0
  -5 -15   7   38.37    3.24   0
   5 -15  -7   41.77    3.20   0
  -5  15   7   31.64    2.40   0
  -5 -15   7   42.22    3.35   0
  -5  15   7   36.62    2.67   0
  -5 -15   7   36.60    2.47   0
  -4  15   7    5.61    3.22   0
   4 -15  -7    1.84    3.13   0
  -4 -15   7    2.24    2.29   0
  -4 -15   7    2.73    2.16   0
  -4 -15   7    0.51    3.04   0
  -4  15   7    2.53    3.32   0
   4  15  -7    0.08    3.37   0
   3 -15  -7  150.07    3.71   0
   3  15  -7  132.57    3.93   0
  -3  15   7  125.86    2.94   0
  -3  15   7  133.42    4.36   0
  -3 -15   7  148.89    3.73   0
  -3 -15   7  141.05    2.92   0
  -3 -15   7  139.70    3.68   0
   2 -15  -7    8.48    2.20   0
  -2 -15   7    9.71    2.22   0
  -2  15   7    6.86    3.08   0
  -2  15   7    7.04    3.40   0
  -2 -15   7    7.20    2.27   0
  -2 -15   7    6.34    3.14   0
   2  15  -7    5.59    3.44   0
   1 -15  -7   27.08    2.35   0
  -1  15   7   23.98    2.44   0
  -1 -15   7   30.01    3.25   0
   1  15  -7   30.16    3.42   0
  -1 -15   7   29.40    3.21   0
  -1 -15   7   28.31    3.28   0
   0 -15  -7    3.85    3.15   0
   0  15   7    2.18    2.27   0
   0  15  -7   -1.92    2.46   0
   0 -15   7    2.14    3.12   0
   0 -15   7    2.14    2.28   0
   0 -15   7    4.52    3.13   0
  -1 -15  -7   -0.20    2.21   0
   1 -15   7   -0.03    2.28   0
   1 -15   7   -0.10    2.22   0
   1  15   7    3.57    2.33   0
  -1  15  -7   -1.43    3.35   0
   1 -15   7    1.00    2.15   0
  -2 -15  -7    0.62    2.22   0
   2 -15   7    1.80    3.25   0
   2  15   7   -2.36    3.29   0
  -2  15  -7   -0.65    2.35   0
   2 -15   7   -2.13    3.16   0
   2 -15   7    1.85    2.32   0
  -3 -15  -7    8.85    3.30   0
  -3  15  -7    9.10    3.37   0
   3  15   7    4.07    3.40   0
   3 -15   7    7.36    2.36   0
   3 -15   7    6.07    3.28   0
   3 -15   7    8.56    3.43   0
   6 -16  -7    2.35    3.28   0
  -6 -16   7   -0.03    2.33   0
  -6 -16   7    4.16    3.16   0
  -6 -16   7    1.60    2.38   0
  -6  16   7    1.26    3.47   0
  -6  16   7   -0.37    2.42   0
  -5 -16   7   26.06    3.23   0
   5 -16  -7   26.44    3.42   0
  -5 -16   7   21.24    2.39   0
  -5 -16   7   21.88    2.49   0
  -5  16   7   19.58    3.64   0
  -5  16   7   20.54    2.45   0
   4 -16  -7  117.27    2.93   0
  -4  16   7  115.49    3.76   0
   4  16  -7  116.81    4.17   0
  -4  16   7  118.96    4.22   0
  -4 -16   7  108.80    2.89   0
  -4 -16   7  116.36    3.14   0
  -4 -16   7  117.92    2.88   0
   3 -16  -7  144.22    3.84   0
  -3  16   7  115.40    2.91   0
  -3 -16   7  135.63    3.69   0
   3  16  -7  128.65    4.05   0
  -3  16   7  126.03    4.50   0
  -3 -16   7  147.97    3.90   0
  -3 -16   7  137.99    3.85   0
   2 -16  -7   92.68    2.70   0
   2  16  -7   91.25    3.74   0
  -2  16   7   78.47    2.67   0
  -2 -16   7   81.73    2.71   0
  -2  16   7   87.28    5.14   0
  -2 -16   7   87.06    2.84   0
  -2 -16   7   77.43    2.63   0
   1 -16  -7  124.87    2.87   0
  -1  16   7  121.19    3.79   0
   1  16  -7  135.33    3.94   0
  -1 -16   7  134.16    3.68   0
  -1 -16   7  129.68    3.83   0
  -1 -16   7  121.47    3.73   0
   0 -16  -7   83.36    3.52   0
   0 -16   7   83.35    3.68   0
   0  16  -7   78.79    3.83   0
   0  16   7   68.58    3.51   0
   0 -16   7   70.60    2.84   0
   0 -16   7   75.76    2.77   0
  -1 -16  -7    8.60    2.29   0
   1  16   7    2.98    3.38   0
  -1  16  -7    8.67    3.38   0
   1 -16   7    5.62    2.33   0
   1 -16   7    6.81    2.38   0
   1 -16   7    2.31    3.31   0
 -14   0   8  107.19    3.93   0
 -14   0   8  104.34    4.25   0
 -13   0   8  163.30    3.87   0
 -13   0   8  173.48    4.32   0
 -12   0   8  912.34    5.87   0
 -12   0   8  934.69    6.86   0
  12   0  -8  830.19    5.90   0
  11   0  -8  384.18    4.14   0
 -11   0   8  400.66    3.92   0
 -11   0   8  413.28    4.42   0
 -10   0   8  650.06    5.16   0
 -10   0   8  676.91    5.65   0
  10   0  -8  629.85    5.32   0
   9   0  -8  721.29    5.56   0
  -9   0   8  751.98    5.40   0
   8   0  -8  232.10    3.68   0
  -8   0   8  248.08    3.35   0
  -7   0   8  987.46    5.90   0
   7   0  -8  965.95    6.12   0
   6   0  -8  548.30    4.86   0
  -6   0   8  557.87    4.59   0
  -5   0   8   12.31    1.96   0
   5   0  -8   14.27    1.81   0
  -5   0   8   11.67    1.87   0
   4   0  -8  301.11    3.63   0
  -4   0   8  334.09    4.18   0
  -4   0   8  303.65    4.27   0
  -3   0   8   18.39    2.79   0
   3   0  -8   14.10    2.48   0
  -3   0   8   17.91    2.50   0
   2   0  -8   36.47    2.72   0
  -2   0   8   36.32    2.03   0
  -2   0   8   34.08    2.24   0
   1   0  -8 2123.79    9.56   0
   1   0  -8 2247.28    9.58   0
  -1   0   8 2265.91    9.86   0
  -1   0   8 2285.73    9.64   0
   0   0  -8 1571.21    8.07   0
   0   0  -8 1535.39    8.15   0
   0   0   8 1608.55    8.38   0
   0   0   8 1571.59    8.20   0
  -1   0  -8   12.92    2.72   0
   1   0   8   12.72    2.71   0
  -1   0  -8   16.23    2.72   0
   1   0   8   13.23    2.63   0
   2   0   8  824.49    6.77   0
  -2   0  -8  872.09    6.44   0
  -2   0  -8  849.18    6.92   0
   2   0   8  808.93    5.86   0
   3   0   8 1360.45    8.94   0
  -3   0  -8 1473.68    7.65   0
  -3   0  -8 1455.27    9.29   0
   3   0   8 1410.91    7.67   0
  -4   0  -8  207.11    4.49   0
  -4   0  -8  204.87    3.34   0
   4   0   8  192.53    3.23   0
   4   0   8  188.94    4.37   0
   5   0   8   12.03    3.53   0
   5   0   8   11.84    2.84   0
  -5   0  -8   11.91    3.50   0
  -5   0  -8   12.79    2.10   0
   6   0   8   14.37    4.42   0
  -6   0  -8   15.57    3.07   0
   6   0   8   14.26    2.98   0
  -7   0  -8   50.30    3.45   0
   7   0   8   40.93    3.32   0
   8   0   8    3.39    3.24   0
  -8   0  -8    1.26    3.34   0
  -9   0  -8   46.05    3.67   0
 -14   1   8    7.14    2.44   0
 -14  -1   8    2.86    3.42   0
 -14   1   8   11.31    3.68   0
 -14  -1   8    9.73    3.54   0
 -13   1   8    5.86    3.23   0
 -13  -1   8    8.47    3.13   0
  13  -1  -8    2.92    2.24   0
 -13   1   8    7.03    3.37   0
 -13  -1   8    7.16    2.44   0
 -12   1   8  158.43    3.80   0
 -12  -1   8  149.24    3.02   0
  12  -1  -8  147.29    3.79   0
 -12   1   8  159.43    4.13   0
 -12  -1   8  161.44    3.34   0
  12   1  -8  160.73    3.79   0
 -11   1   8   66.21    3.36   0
 -11  -1   8   61.38    3.44   0
 -11   1   8   69.53    3.48   0
  11  -1  -8   60.90    3.21   0
 -11  -1   8   69.88    3.51   0
  11   1  -8   64.07    3.20   0
 -10   1   8   62.47    3.07   0
  10   1  -8   59.54    3.11   0
  10  -1  -8   60.90    3.12   0
 -10   1   8   62.01    2.50   0
 -10  -1   8   61.13    2.53   0
  -9   1   8  135.10    3.55   0
   9   1  -8  128.63    3.35   0
  -9  -1   8  136.18    3.36   0
   9  -1  -8  124.73    2.78   0
  -8   1   8  238.65    3.37   0
   8   1  -8  217.01    3.13   0
   8  -1  -8  226.44    3.22   0
  -8  -1   8  251.08    3.82   0
   7   1  -8  153.54    2.88   0
  -7   1   8  165.91    2.99   0
   7  -1  -8  162.11    3.45   0
  -7  -1   8  158.37    2.90   0
   6   1  -8    7.65    2.57   0
   6  -1  -8    7.33    2.57   0
  -6   1   8    4.98    2.67   0
  -6  -1   8    5.72    1.85   0
  -5  -1   8  187.88    3.13   0
   5  -1  -8  200.88    3.05   0
  -5   1   8  213.30    3.65   0
  -5  -1   8  209.89    3.11   0
   5   1  -8  204.36    3.58   0
   4  -1  -8   64.81    2.81   0
  -4   1   8   59.96    3.07   0
  -4   1   8   60.32    2.31   0
  -4  -1   8   63.47    3.01   0
   4   1  -8   59.46    2.80   0
  -4  -1   8   62.00    2.23   0
   3  -1  -8   54.33    2.17   0
  -3   1   8   56.65    2.39   0
  -3  -1   8   55.62    3.05   0
  -3   1   8   60.43    2.86   0
   3   1  -8   54.20    2.73   0
  -3  -1   8   54.27    2.15   0
   2  -1  -8  164.26    3.50   0
  -2   1   8  161.92    2.98   0
  -2   1   8  154.01    3.22   0
  -2  -1   8  167.60    3.73   0
   2   1  -8  153.32    3.05   0
   2   1  -8  155.64    2.96   0
  -2  -1   8  165.23    2.99   0
  -1   1   8   36.02    2.18   0
   1  -1  -8   37.15    2.21   0
   1  -1  -8   36.35    2.32   0
   1   1  -8   36.70    2.23   0
  -1   1   8   40.63    3.00   0
   1   1  -8   39.42    2.15   0
  -1  -1   8   41.61    2.96   0
  -1  -1   8   40.57    2.80   0
   0  -1  -8   72.87    3.21   0
   0  -1  -8   74.39    3.02   0
   0   1   8   73.10    2.40   0
   0   1  -8   73.17    3.10   0
   0   1   8   79.30    3.20   0
   0  -1   8   78.26    3.07   0
   0  -1   8   73.84    3.02   0
   0   1  -8   72.96    2.45   0
  -1  -1  -8   75.09    3.15   0
   1   1   8   68.36    2.47   0
  -1  -1  -8   78.22    3.32   0
  -1   1  -8   77.61    3.10   0
   1  -1   8   78.47    3.10   0
   1   1   8   76.04    3.29   0
   1  -1   8   78.80    2.96   0
  -1   1  -8   77.59    3.17   0
  -2   1  -8   34.62    2.90   0
   2   1   8   34.77    2.94   0
  -2  -1  -8   35.03    3.03   0
  -2   1  -8   36.82    2.94   0
  -2  -1  -8   35.23    3.07   0
   2  -1   8   36.01    2.07   0
   2   1   8   35.16    2.94   0
   2  -1   8   35.95    2.95   0
  -3  -1  -8  123.27    3.75   0
   3  -1   8  115.77    3.60   0
  -3   1  -8  116.63    3.68   0
  -3   1  -8  118.95    2.87   0
  -3  -1  -8  126.79    3.07   0
   3  -1   8  124.09    3.35   0
   3   1   8  113.04    2.80   0
   3   1   8  116.86    3.62   0
  -4   1  -8    6.96    2.80   0
   4  -1   8    6.27    2.77   0
  -4  -1  -8    6.83    2.90   0
  -4  -1  -8    7.29    2.87   0
   4   1   8    8.39    2.81   0
   4  -1   8    9.73    2.77   0
   4   1   8    7.23    1.98   0
  -4   1  -8    9.67    2.89   0
  -5   1  -8  145.65    4.98   0
  -5  -1  -8  160.74    3.16   0
  -5   1  -8  165.78    3.77   0
   5   1   8  141.93    4.20   0
   5  -1   8  140.80    4.98   0
   5  -1   8  151.91    3.61   0
   5   1   8  147.03    3.07   0
  -5  -1  -8  143.02    4.26   0
  -6  -1  -8   13.77    3.05   0
   6  -1   8   12.99    6.85   0
   6   1   8   12.79    3.74   0
   6  -1   8   11.78    6.05   0
  -6   1  -8   16.33    3.06   0
  -6  -1  -8   12.39    4.18   0
   6  -1   8   14.05    2.94   0
   6   1   8   15.24    2.21   0
   7   1   8   16.26    3.30   0
  -7   1  -8   16.95    3.22   0
  -7  -1  -8   18.02    2.40   0
   7  -1   8   16.30    3.15   0
   8  -1   8   41.98    2.60   0
   8   1   8   44.82    3.50   0
  -8   1  -8   45.90    3.61   0
  -8  -1  -8   44.11    2.70   0
  -9  -1  -8  227.46    4.74   0
  -9   1  -8  226.73    4.57   0
 -14  -2   8   57.33    2.89   0
 -14   2   8   59.48    4.05   0
  14  -2  -8   56.63    3.74   0
 -14  -2   8   68.34    3.96   0
 -14   2   8   58.35    2.87   0
 -13   2   8   66.98    3.49   0
 -13  -2   8   72.52    3.57   0
 -13   2   8   61.07    3.79   0
 -13  -2   8   70.54    2.91   0
  13  -2  -8   66.24    3.60   0
 -12   2   8  245.70    3.41   0
 -12  -2   8  250.43    3.38   0
 -12   2   8  254.52    4.52   0
  12  -2  -8  255.51    4.40   0
 -12  -2   8  266.57    3.85   0
 -11   2   8  957.30    5.90   0
 -11  -2   8  973.06    6.04   0
  11  -2  -8  944.31    6.49   0
 -11   2   8  926.17    6.19   0
  11   2  -8  940.43    6.32   0
 -11  -2   8 1017.67    6.72   0
 -10   2   8  537.01    4.83   0
  10   2  -8  533.65    5.00   0
 -10   2   8  531.38    5.22   0
 -10  -2   8  568.59    5.16   0
  10  -2  -8  530.20    5.04   0
  -9   2   8   90.58    2.52   0
  -9   2   8   94.76    3.32   0
   9  -2  -8   89.83    2.51   0
   9   2  -8   88.07    2.48   0
  -9  -2   8   95.53    2.60   0
  -8   2   8  604.12    4.87   0
   8  -2  -8  589.02    4.67   0
  -8  -2   8  617.83    4.80   0
   8   2  -8  577.35    4.93   0
   7  -2  -8  655.59    4.90   0
   7   2  -8  627.88    4.78   0
  -7   2   8  662.70    5.03   0
  -7  -2   8  727.18    5.42   0
  -6  -2   8  166.43    3.43   0
   6  -2  -8  150.31    2.87   0
  -6  -2   8  152.77    3.39   0
  -6   2   8  152.21    3.44   0
   6   2  -8  156.59    3.34   0
  -5  -2   8  588.72    4.70   0
   5  -2  -8  576.09    4.63   0
   5   2  -8  576.19    4.94   0
  -5  -2   8  524.34    4.61   0
  -5   2   8  575.32    4.71   0
   4  -2  -8  152.92    3.28   0
  -4  -2   8  153.93    2.81   0
   4   2  -8  141.26    2.73   0
  -4   2   8  149.91    2.87   0
  -4  -2   8  153.89    3.51   0
  -4   2   8  143.00    3.00   0
  -3  -2   8   79.69    2.90   0
   3   2  -8   76.18    2.88   0
  -3   2   8   72.48    2.55   0
  -3  -2   8   75.53    2.49   0
  -3   2   8   76.17    2.96   0
   3  -2  -8   81.17    2.92   0
   2   2  -8   29.78    2.07   0
  -2   2   8   28.88    2.68   0
   2   2  -8   27.38    2.10   0
  -2   2   8   29.58    2.92   0
  -2  -2   8   31.97    2.86   0
   2  -2  -8   31.68    2.03   0
  -2  -2   8   33.00    2.12   0
   1   2  -8  226.72    3.84   0
  -1   2   8  216.67    3.28   0
   1   2  -8  223.44    3.85   0
  -1   2   8  230.16    4.27   0
  -1  -2   8  226.96    3.43   0
   1  -2  -8  232.46    3.88   0
  -1  -2   8  241.31    3.86   0
   0   2   8 1036.27    6.47   0
   0  -2   8 1099.63    6.51   0
   0   2  -8 1062.22    6.67   0
   0  -2  -8 1097.51    7.94   0
   0   2  -8 1125.86    6.98   0
   0   2   8 1109.79    7.68   0
   0  -2   8 1104.47    6.78   0
   0  -2  -8 1102.75    6.70   0
   1   2   8 1161.00    6.99   0
  -1   2  -8 1255.08    6.81   0
  -1   2  -8 1199.83    7.50   0
  -1  -2  -8 1233.47    8.06   0
   1   2   8 1265.06    8.39   0
   1  -2   8 1254.06    7.02   0
   1  -2   8 1293.38    7.93   0
  -1  -2  -8 1235.65    7.25   0
  -2   2  -8  391.45    4.04   0
   2  -2   8  383.80    5.04   0
   2  -2   8  361.59    3.88   0
   2   2   8  364.64    4.48   0
  -2  -2  -8  385.66    5.17   0
  -2   2  -8  375.77    4.98   0
  -2  -2  -8  392.84    4.96   0
   2   2   8  353.07    4.71   0
  -3  -2  -8  199.53    3.67   0
   3  -2   8  203.23    4.20   0
  -3   2  -8  198.19    4.17   0
  -3   2  -8  223.16    3.83   0
  -3  -2  -8  216.05    4.26   0
   3  -2   8  195.21    3.15   0
   3   2   8  194.82    4.01   0
   3   2   8  183.83    3.52   0
   4  -2   8  288.51    5.12   0
  -4  -2  -8  316.07    5.05   0
  -4  -2  -8  331.44    4.88   0
  -4   2  -8  312.51    3.75   0
   4   2   8  276.36    4.73   0
  -4   2  -8  289.52    5.14   0
   4  -2   8  300.67    4.09   0
   4   2   8  293.04    4.60   0
  -5  -2  -8  161.53    4.33   0
  -5   2  -8  168.84    3.69   0
  -5  -2  -8  172.55    3.98   0
   5  -2   8  160.88    3.61   0
   5  -2   8  148.28    5.16   0
   5   2   8  152.25    3.87   0
   5   2   8  147.81    4.14   0
  -6   2  -8   17.86    3.06   0
   6   2   8   14.70    3.85   0
  -6  -2  -8   17.35    3.09   0
  -6  -2  -8   16.50    3.84   0
   6  -2   8   17.16    3.01   0
   6   2   8   16.56    3.08   0
   7   2   8   55.78    3.48   0
  -7  -2  -8   60.77    2.73   0
  -7   2  -8   62.01    3.51   0
  -7  -2  -8   56.51    6.02   0
   7  -2   8   58.88    3.38   0
   8   2   8   79.00    3.08   0
  -8  -2  -8   96.35    3.99   0
  -8   2  -8   90.03    2.90   0
   8  -2   8   84.44    2.79   0
 -14  -3   8   31.86    3.70   0
 -14  -3   8   32.99    3.75   0
  14  -3  -8   22.78    3.56   0
 -14   3   8   24.15    2.84   0
 -14   3   8   26.06    2.72   0
 -13   3   8  100.88    4.02   0
 -13  -3   8   93.50    2.91   0
 -13  -3   8  104.96    3.89   0
  13  -3  -8   91.98    3.77   0
 -13   3   8   97.14    2.90   0
 -12   3   8  200.43    3.96   0
 -12   3   8  194.46    4.31   0
 -12  -3   8  198.41    3.96   0
  12  -3  -8  185.98    4.09   0
 -12  -3   8  209.89    4.23   0
 -11   3   8  179.28    3.08   0
 -11   3   8  176.83    3.97   0
 -11  -3   8  179.07    3.25   0
  11  -3  -8  167.34    3.81   0
 -10   3   8  309.13    4.08   0
 -10   3   8  297.17    4.36   0
  10   3  -8  284.29    3.51   0
  10  -3  -8  304.48    4.30   0
 -10  -3   8  303.70    3.65   0
  -9  -3   8   63.40    2.30   0
  -9   3   8   58.53    3.13   0
  -9   3   8   57.33    3.03   0
   9  -3  -8   59.12    2.43   0
   9   3  -8   59.46    2.34   0
  -8  -3   8  255.63    3.32   0
  -8   3   8  246.53    3.86   0
   8  -3  -8  253.90    3.84   0
  -8   3   8  233.29    3.35   0
   8   3  -8  228.19    3.14   0
   7  -3  -8    6.09    1.92   0
  -7  -3   8    5.14    2.64   0
  -7   3   8    5.32    1.99   0
  -7  -3   8    5.71    1.99   0
   7   3  -8    6.33    2.60   0
   6  -3  -8    1.02    2.58   0
   6   3  -8    2.63    2.56   0
  -6  -3   8   -0.18    1.84   0
  -6   3   8    0.78    1.86   0
  -6  -3   8    0.12    2.64   0
  -5  -3   8   -0.03    2.50   0
  -5   3   8    1.31    1.76   0
  -5  -3   8    0.62    1.89   0
   5   3  -8   -0.02    1.72   0
   5  -3  -8    5.17    2.57   0
  -4  -3   8  209.21    3.57   0
  -4   3   8  195.37    3.04   0
  -4  -3   8  203.62    3.70   0
   4   3  -8  204.16    3.49   0
   4  -3  -8  201.93    3.04   0
  -3  -3   8  274.89    3.44   0
  -3   3   8  259.27    3.40   0
   3   3  -8  260.06    3.48   0
  -3   3   8  254.30    4.31   0
  -3  -3   8  271.39    3.60   0
   3   3  -8  248.10    3.36   0
   3  -3  -8  276.39    3.90   0
  -2  -3   8 1383.69    7.12   0
  -2   3   8 1254.96    6.67   0
   2   3  -8 1251.12    6.83   0
  -2   3   8 1277.86    8.38   0
  -2  -3   8 1368.84    7.16   0
   2   3  -8 1277.25    6.82   0
   2  -3  -8 1334.18    6.97   0
  -1  -3   8  163.15    2.94   0
  -1   3   8  146.23    3.34   0
   1   3  -8  149.09    2.98   0
  -1   3   8  159.49    4.02   0
  -1  -3   8  162.84    3.58   0
   1  -3  -8  150.55    2.90   0
   1   3  -8  147.83    2.87   0
   0   3   8  130.25    3.25   0
   0  -3   8  138.32    2.86   0
   0   3  -8  139.18    3.52   0
   0   3   8  133.95    3.24   0
   0  -3  -8  137.49    2.81   0
   0  -3   8  133.39    2.84   0
   0   3  -8  131.29    3.32   0
  -1   3  -8  620.59    5.33   0
  -1  -3  -8  578.64    6.30   0
  -1   3  -8  570.23    5.60   0
   1   3   8  581.75    6.18   0
  -1  -3  -8  585.70    5.09   0
   1  -3   8  586.78    5.12   0
   1  -3   8  597.92    5.67   0
   1   3   8  567.03    5.28   0
  -2  -3  -8  124.20    3.84   0
  -2   3  -8  121.61    3.49   0
  -2   3  -8  133.96    3.46   0
   2  -3   8  125.30    2.99   0
   2  -3   8  128.25    3.28   0
   2   3   8  115.36    3.04   0
  -2  -3  -8  126.57    3.50   0
   2   3   8  126.74    3.44   0
  -3  -3  -8   56.65    3.30   0
  -3   3  -8   63.06    3.10   0
   3  -3   8   60.03    3.22   0
   3  -3   8   54.56    2.27   0
   3   3   8   53.39    3.03   0
  -3  -3  -8   58.89    3.16   0
   3   3   8   60.23    3.18   0
   4  -3   8   10.21    2.95   0
  -4  -3  -8   11.20    2.13   0
  -4   3  -8   12.00    3.00   0
   4   3   8    9.59    2.05   0
   4  -3   8   10.43    1.97   0
   4   3   8   10.35    2.94   0
  -4  -3  -8   11.74    2.86   0
   5  -3   8   39.17    3.53   0
  -5  -3  -8   44.88    3.39   0
   5  -3   8   41.10    4.12   0
  -5  -3  -8   47.24    3.36   0
   5   3   8   40.83    3.28   0
  -5   3  -8   49.30    2.45   0
   5  -3   8   40.66    2.98   0
   5   3   8   40.97    3.24   0
   6   3   8   18.92    3.19   0
  -6  -3  -8   19.84    3.95   0
   6   3   8   19.22    3.19   0
  -6  -3  -8   18.92    2.37   0
  -6   3  -8   22.48    3.13   0
   6  -3   8   20.48    3.02   0
   7   3   8  105.20    3.93   0
   7   3   8   94.45    5.17   0
  -7  -3  -8  112.32    3.94   0
  -7   3  -8  111.58    2.88   0
  -7  -3  -8  105.42    5.24   0
   7  -3   8   91.95    2.78   0
   8   3   8   76.44    3.90   0
  -8  -3  -8   85.26    3.89   0
  -8   3  -8   88.27    3.73   0
   8  -3   8   81.95    3.56   0
 -13  -4   8   53.57    3.48   0
  13  -4  -8   43.80    2.72   0
 -13  -4   8   53.61    3.65   0
 -13   4   8   47.51    3.78   0
 -13   4   8   47.12    2.67   0
 -12   4   8   -0.40    2.19   0
 -12   4   8    0.97    3.27   0
 -12  -4   8    2.90    3.13   0
 -12  -4   8    2.70    2.20   0
  12  -4  -8    1.97    3.13   0
 -11   4   8  372.62    3.73   0
 -11   4   8  374.27    4.84   0
  11  -4  -8  357.35    4.08   0
 -11  -4   8  414.39    4.73   0
 -10   4   8  467.53    4.59   0
 -10   4   8  427.92    4.31   0
 -10  -4   8  487.87    4.87   0
  10  -4  -8  433.06    4.38   0
  -9   4   8   61.74    2.39   0
  -9   4   8   59.14    2.50   0
  -9  -4   8   66.13    3.04   0
   9  -4  -8   64.54    3.01   0
  -9  -4   8   61.26    3.21   0
   8  -4  -8  681.82    5.02   0
  -8   4   8  715.95    5.39   0
  -8   4   8  647.42    4.92   0
  -8  -4   8  722.98    5.27   0
  -8  -4   8  675.23    5.44   0
   8   4  -8  652.65    4.69   0
  -7   4   8  861.75    5.92   0
  -7   4   8  802.91    5.38   0
  -7  -4   8  895.53    5.76   0
  -7  -4   8  803.07    5.33   0
   7   4  -8  814.69    5.19   0
   7  -4  -8  834.98    5.44   0
  -6   4   8  663.99    4.92   0
  -6  -4   8  730.57    5.31   0
  -6  -4   8  675.70    5.39   0
   6  -4  -8  709.31    5.34   0
   6   4  -8  656.47    4.75   0
  -5   4   8  315.13    4.03   0
  -5  -4   8  311.08    3.69   0
  -5  -4   8  335.34    3.99   0
   5  -4  -8  333.78    4.05   0
   5   4  -8  319.08    3.92   0
  -4   4   8  742.55    5.45   0
  -4  -4   8  751.41    5.08   0
  -4  -4   8  768.20    5.75   0
   4  -4  -8  756.38    5.47   0
   4   4  -8  711.74    5.00   0
  -3   4   8 1162.83    6.36   0
   3   4  -8 1153.03    6.44   0
  -3  -4   8 1284.83    7.07   0
  -3  -4   8 1283.65    6.86   0
  -3   4   8 1135.67    7.49   0
   3   4  -8 1214.85    6.70   0
   3  -4  -8 1253.97    6.88   0
  -2   4   8  175.32    3.49   0
  -2  -4   8  180.64    3.03   0
  -2  -4   8  178.74    3.55   0
   2   4  -8  166.08    3.01   0
  -2   4   8  160.59    3.47   0
   2  -4  -8  168.73    2.97   0
   2   4  -8  166.75    2.94   0
  -1   4   8   31.12    2.79   0
  -1  -4   8   34.40    2.00   0
   1   4  -8   31.26    2.18   0
  -1   4   8   35.29    3.05   0
  -1  -4   8   35.51    2.12   0
   1  -4  -8   34.86    2.75   0
   1   4  -8   31.83    2.00   0
   0  -4   8  275.25    3.66   0
   0   4  -8  255.88    3.54   0
   0   4  -8  280.20    4.03   0
   0   4   8  280.73    4.94   0
   0  -4  -8  275.65    3.99   0
   0  -4   8  280.56    3.47   0
   0   4   8  261.28    3.89   0
   1  -4   8 1065.07    7.11   0
  -1  -4  -8 1052.92    6.75   0
  -1   4  -8 1039.87    5.99   0
   1   4   8 1024.57    8.46   0
   1  -4   8 1060.62    6.31   0
   1   4   8  912.16    5.94   0
  -1   4  -8  977.77    6.49   0
  -2   4  -8  872.02    5.81   0
  -2  -4  -8  815.53    6.23   0
   2  -4   8  773.81    5.11   0
   2   4   8  795.70    7.61   0
   2   4   8  751.02    5.98   0
   2  -4   8  829.96    6.62   0
  -2  -4  -8  803.26    7.91   0
  -3  -4  -8  400.46    5.82   0
  -3   4  -8  424.58    3.99   0
  -3  -4  -8  391.81    4.46   0
   3   4   8  378.17    4.79   0
   3  -4   8  408.01    5.38   0
   3  -4   8  388.44    3.82   0
   3   4   8  388.92    5.61   0
   4  -4   8  780.00    7.65   0
  -4   4  -8  822.94    5.25   0
   4   4   8  715.98    6.39   0
  -4  -4  -8  798.61    6.80   0
   4  -4   8  769.21    5.38   0
  -4  -4  -8  805.22    7.62   0
   4   4   8  763.62    7.40   0
   5   4   8 1387.81    9.57   0
   5  -4   8 1302.46   11.53   0
   5  -4   8 1367.15   11.75   0
   5   4   8 1293.24    8.71   0
  -5  -4  -8 1477.69    9.92   0
  -5   4  -8 1531.01    7.35   0
  -5  -4  -8 1441.16    9.37   0
   5  -4   8 1337.51    6.38   0
   6   4   8  496.52    6.20   0
  -6  -4  -8  525.39    6.37   0
   6   4   8  433.13    5.98   0
  -6   4  -8  514.39    4.43   0
   6  -4   8  495.91    4.79   0
  -6  -4  -8  507.49    6.49   0
   7   4   8  114.00    4.16   0
   7   4   8  104.39    4.32   0
  -7  -4  -8  116.66    4.96   0
  -7  -4  -8  120.35    4.27   0
  -7   4  -8  121.75    3.00   0
   7  -4   8  103.40    2.86   0
  -8   4  -8  220.83    4.28   0
  -8  -4  -8  180.49    4.07   0
   8  -4   8  182.02    3.27   0
  -8  -4  -8  180.68    7.66   0
  13  -5  -8   45.15    3.49   0
 -13  -5   8   49.37    2.72   0
 -13  -5   8   52.05    3.47   0
 -13   5   8   47.39    2.83   0
 -13  -5   8   57.35    3.66   0
 -13   5   8   59.84    3.58   0
 -12  -5   8   57.30    2.59   0
 -12  -5   8   50.89    2.52   0
  12  -5  -8   54.79    3.47   0
 -12   5   8   60.23    3.58   0
 -12   5   8   59.59    3.45   0
 -11   5   8    8.77    2.95   0
 -11  -5   8    8.69    2.98   0
 -11  -5   8    5.04    3.19   0
  11  -5  -8    4.91    2.14   0
 -11   5   8    6.50    3.17   0
 -10   5   8   30.06    3.16   0
 -10   5   8   34.39    3.17   0
 -10  -5   8   32.80    3.10   0
  10  -5  -8   35.94    3.05   0
 -10  -5   8   30.68    3.12   0
  -9   5   8   23.80    2.97   0
  -9   5   8   23.88    2.99   0
   9  -5  -8   23.36    2.14   0
  -9  -5   8   24.61    2.87   0
  -9  -5   8   24.84    3.00   0
  -8   5   8   18.73    2.84   0
  -8   5   8   18.54    2.99   0
  -8  -5   8   15.51    2.72   0
  -8  -5   8   15.95    2.89   0
   8  -5  -8   16.06    2.70   0
  -7   5   8  566.50    4.51   0
  -7   5   8  602.56    4.69   0
  -7  -5   8  629.57    5.08   0
  -7  -5   8  585.72    5.15   0
   7  -5  -8  620.54    5.08   0
  -6   5   8  397.91    4.44   0
  -6   5   8  429.88    4.75   0
  -6  -5   8  397.32    4.06   0
  -6  -5   8  411.66    3.89   0
   6  -5  -8  401.85    3.95   0
  -5   5   8  184.47    3.03   0
  -5  -5   8  191.00    3.12   0
  -5  -5   8  190.28    2.91   0
   5  -5  -8  193.68    3.01   0
   5   5  -8  192.48    3.35   0
  -4   5   8   23.47    1.94   0
  -4  -5   8   25.22    2.14   0
  -4  -5   8   23.81    2.54   0
   4   5  -8   25.36    1.92   0
   4  -5  -8   24.70    1.91   0
  -3   5   8  410.95    3.97   0
   3   5  -8  415.85    4.10   0
   3  -5  -8  432.47    4.07   0
  -3  -5   8  443.85    4.18   0
  -3  -5   8  437.24    4.06   0
   3   5  -8  440.75    4.42   0
   2   5  -8  154.77    3.37   0
  -2   5   8  157.30    4.03   0
   2  -5  -8  162.84    3.45   0
  -2  -5   8  168.33    2.88   0
  -2  -5   8  168.38    3.45   0
   2   5  -8  153.95    2.85   0
  -2   5   8  151.68    3.35   0
   1   5  -8  101.85    3.12   0
  -1   5   8  100.09    3.64   0
   1  -5  -8  100.24    2.54   0
  -1  -5   8   97.04    2.53   0
  -1  -5   8  101.53    3.12   0
  -1   5   8   92.46    3.04   0
   0   5  -8  147.37    3.44   0
   0   5   8  142.04    4.13   0
   0  -5   8  143.39    3.33   0
   0  -5  -8  147.07    3.46   0
   0   5   8  132.05    2.79   0
   0  -5   8  149.98    3.43   0
   1  -5   8   56.63    2.97   0
  -1   5  -8   59.43    3.05   0
   1   5   8   56.23    3.89   0
   1  -5   8   53.92    2.20   0
  -1  -5  -8   61.33    2.99   0
   1   5   8   55.32    2.93   0
   2  -5   8  166.31    3.24   0
  -2   5  -8  175.24    3.06   0
  -2  -5  -8  174.14    3.69   0
   2  -5   8  168.30    2.91   0
   2   5   8  160.54    3.56   0
   2   5   8  168.56    4.91   0
  -3  -5  -8  215.67    4.12   0
  -3  -5  -8  214.15    5.14   0
  -3   5  -8  239.00    3.87   0
   3   5   8  196.76    3.92   0
   3  -5   8  215.28    3.69   0
   3   5   8  203.55    4.89   0
   3  -5   8  224.44    4.35   0
   4   5   8    3.57    2.99   0
  -4   5  -8    3.10    2.05   0
   4  -5   8    5.17    2.98   0
  -4  -5  -8    4.04    3.67   0
  -4  -5  -8    3.32    2.99   0
   4   5   8    5.90    2.92   0
   4  -5   8    3.47    2.92   0
   4  -5   8    8.93    2.85   0
   5   5   8   46.80    4.14   0
   5  -5   8   44.41    3.56   0
   5  -5   8   42.76    3.57   0
  -5  -5  -8   48.02    4.25   0
   5   5   8   43.86    3.28   0
  -5   5  -8   51.93    3.22   0
  -5  -5  -8   46.89    3.40   0
   5  -5   8   50.12    3.13   0
   6  -5   8   99.56    7.44   0
   6   5   8  111.67    4.22   0
   6   5   8  101.01    3.97   0
  -6  -5  -8  114.66    4.83   0
  -6   5  -8  116.10    2.88   0
   6  -5   8  100.74    6.91   0
  -6  -5  -8  111.98    4.02   0
   6  -5   8  104.20    2.76   0
   7   5   8    1.86    3.24   0
  -7   5  -8    2.68    2.22   0
  -7  -5  -8    0.60    3.26   0
   7  -5   8    0.46    3.09   0
  -7  -5  -8    1.75    3.98   0
  -8  -5  -8   21.65    4.70   0
  -8  -5  -8   26.00    4.52   0
  -8   5  -8   23.48    3.52   0
   8  -5   8   23.51    3.41   0
 -13  -6   8   15.51    2.52   0
 -13  -6   8   11.83    2.50   0
 -13  -6   8   13.11    2.42   0
 -13  -6   8   16.18    3.59   0
 -13   6   8   13.13    2.52   0
  13  -6  -8   14.32    3.37   0
 -13   6   8   16.05    2.44   0
 -12  -6   8   20.39    3.26   0
 -12  -6   8   17.38    3.14   0
 -12  -6   8   16.00    2.49   0
 -12   6   8   19.06    3.38   0
 -12   6   8   19.13    2.30   0
  12  -6  -8   18.02    3.20   0
 -11  -6   8  103.52    3.64   0
 -11  -6   8  104.47    2.84   0
  11  -6  -8   98.81    2.84   0
 -11   6   8  101.13    3.64   0
 -11   6   8  106.15    3.52   0
 -10   6   8  133.17    2.92   0
  10  -6  -8  136.77    3.67   0
 -10  -6   8  146.85    3.56   0
 -10  -6   8  129.85    2.94   0
 -10   6   8  134.77    3.73   0
  -9   6   8  142.34    2.83   0
  -9  -6   8  143.91    3.58   0
  -9  -6   8  148.36    2.92   0
   9  -6  -8  145.20    2.87   0
  -9   6   8  137.47    2.94   0
  -8  -6   8   92.34    3.43   0
  -8   6   8   96.15    3.22   0
  -8  -6   8   91.98    2.49   0
   8  -6  -8   92.60    3.21   0
  -8   6   8   88.00    3.18   0
  -7   6   8  125.75    3.41   0
  -7  -6   8  135.44    3.49   0
  -7  -6   8  128.39    2.74   0
   7  -6  -8  132.72    3.27   0
  -7   6   8  118.33    2.68   0
  -6   6   8  318.17    3.82   0
  -6  -6   8  312.87    3.77   0
   6  -6  -8  313.03    3.56   0
  -6  -6   8  336.34    4.01   0
  -6   6   8  301.56    3.57   0
  -5   6   8   22.65    2.15   0
   5  -6  -8   24.90    2.01   0
  -5  -6   8   29.39    2.21   0
  -5  -6   8   24.13    2.65   0
  -5   6   8   24.23    2.73   0
  -4   6   8   61.41    3.08   0
   4   6  -8   60.24    3.02   0
   4  -6  -8   59.62    2.16   0
  -4  -6   8   66.64    2.42   0
  -4  -6   8   62.58    2.15   0
  -4   6   8   61.02    2.16   0
   3   6  -8    1.03    2.65   0
   3  -6  -8    0.89    1.71   0
  -3  -6   8    0.91    2.55   0
  -3  -6   8   -0.15    1.86   0
  -3   6   8    1.86    2.46   0
  -2   6   8  136.32    3.85   0
   2   6  -8  141.46    3.35   0
   2  -6  -8  141.83    3.27   0
  -2  -6   8  139.74    2.70   0
  -2  -6   8  143.44    3.43   0
  -2   6   8  133.88    3.30   0
   1  -6  -8   19.04    2.00   0
   1   6  -8   28.36    2.75   0
  -1   6   8   18.57    2.91   0
  -1  -6   8   19.87    1.94   0
  -1  -6   8   18.81    2.73   0
  -1   6   8   19.02    2.69   0
   0  -6  -8  233.30    3.78   0
   0   6  -8  227.46    3.71   0
   0   6   8  225.59    5.05   0
   0  -6   8  226.74    3.70   0
   0  -6   8  227.19    3.60   0
   0   6   8  200.09    3.13   0
   1   6   8  186.69    3.03   0
  -1   6  -8  206.39    3.10   0
  -1  -6  -8  205.18    3.70   0
   1  -6   8  204.06    3.71   0
   1  -6   8  209.43    3.59   0
   1   6   8  200.93    5.61   0
   2  -6   8  827.32    6.52   0
  -2  -6  -8  801.51    5.68   0
  -2   6  -8  832.27    5.22   0
   2   6   8  741.10    5.38   0
   2  -6   8  792.06    5.06   0
   2   6   8  807.05   10.86   0
   3   6   8 1146.48   13.40   0
   3  -6   8 1181.63    7.98   0
   3  -6   8 1106.28    7.85   0
  -3  -6  -8 1153.96    7.29   0
  -3   6  -8 1239.48    6.62   0
   3   6   8 1057.53    6.85   0
   3  -6   8 1094.03    5.83   0
   4   6   8  882.93   11.46   0
   4  -6   8  878.78    7.72   0
  -4  -6  -8  869.60    6.26   0
   4   6   8  794.81    5.89   0
  -4   6  -8  929.29    5.41   0
   4  -6   8  839.52    5.10   0
   4  -6   8  917.04    7.76   0
  -5  -6  -8  570.10    9.00   0
   5  -6   8  549.54    6.96   0
   5   6   8  528.64    5.61   0
  -5  -6  -8  548.95    5.38   0
  -5   6  -8  601.27    4.53   0
   5  -6   8  565.06    7.09   0
   5  -6   8  584.79    4.93   0
   6  -6   8  222.78    7.25   0
   6   6   8  220.27    4.63   0
  -6  -6  -8  248.49    6.47   0
  -6   6  -8  263.08    4.29   0
  -6  -6  -8  253.24    4.81   0
   6  -6   8  237.22    7.32   0
   6  -6   8  234.91    3.29   0
  -7  -6  -8  124.19    5.41   0
   7   6   8  108.58    4.31   0
  -7   6  -8  134.78    3.89   0
  -7  -6  -8  121.92    5.04   0
   7  -6   8  117.02    2.91   0
  -8  -6  -8   88.83    5.24   0
  -8   6  -8   90.04    2.98   0
  -8  -6  -8   88.04    4.29   0
   8  -6   8   87.15    3.62   0
 -13  -7   8   15.57    3.56   0
 -13  -7   8   14.10    3.52   0
 -13  -7   8   12.60    2.47   0
 -13  -7   8   15.32    2.55   0
  13  -7  -8   13.42    2.50   0
 -13   7   8   13.77    3.57   0
 -13   7   8   15.26    3.69   0
 -12  -7   8   51.53    3.38   0
 -12  -7   8   53.60    2.66   0
  12  -7  -8   50.41    3.47   0
 -12  -7   8   47.26    2.69   0
 -12   7   8   51.18    3.59   0
 -12   7   8   50.89    2.60   0
  11  -7  -8    4.96    3.16   0
 -11  -7   8    3.57    2.99   0
 -11  -7   8    4.52    3.26   0
 -11  -7   8    3.66    3.08   0
 -11   7   8    4.68    3.18   0
 -11   7   8    7.55    3.27   0
 -10  -7   8  368.48    4.61   0
 -10  -7   8  392.24    4.50   0
 -10   7   8  361.19    4.72   0
  10  -7  -8  366.06    4.10   0
 -10   7   8  353.16    3.80   0
  -9  -7   8    4.98    2.23   0
  -9  -7   8    7.36    2.04   0
   9  -7  -8    4.64    2.90   0
  -9   7   8    9.32    2.15   0
  -9   7   8    5.70    2.23   0
  -8   7   8  271.70    3.99   0
  -8  -7   8  252.45    3.43   0
   8  -7  -8  252.56    3.40   0
  -8  -7   8  276.97    3.83   0
  -8   7   8  245.09    3.42   0
  -7   7   8 1695.85    7.90   0
  -7  -7   8 1739.60    7.96   0
   7  -7  -8 1645.47    7.17   0
  -7  -7   8 1662.74    6.89   0
  -7   7   8 1594.51    7.51   0
  -6   7   8  773.54    5.55   0
  -6  -7   8  793.85    5.34   0
   6  -7  -8  796.83    5.56   0
  -6   7   8  761.14    5.52   0
  -6  -7   8  770.06    4.92   0
  -5   7   8    1.46    1.96   0
  -5  -7   8    1.48    2.02   0
   5  -7  -8    2.16    2.60   0
  -5   7   8    3.83    1.95   0
  -5  -7   8    3.39    1.75   0
  -4  -7   8   11.02    2.52   0
  -4   7   8   11.40    2.05   0
  -4  -7   8    7.68    2.75   0
   4  -7  -8   10.15    1.79   0
   4   7  -8    8.59    1.98   0
  -4   7   8    9.93    1.85   0
  -3  -7   8  419.67    4.36   0
  -3   7   8  419.38    4.88   0
   3  -7  -8  405.44    3.83   0
  -3  -7   8  441.90    4.48   0
   3   7  -8  388.61    3.87   0
  -3   7   8  409.82    4.30   0
  -2  -7   8   51.40    2.87   0
  -2   7   8   52.61    3.21   0
   2   7  -8   54.08    2.98   0
  -2   7   8   50.69    3.36   0
   2  -7  -8   48.74    2.10   0
  -2  -7   8   53.91    2.17   0
  -2   7   8   49.13    2.79   0
  -1   7   8   28.01    3.74   0
   1  -7  -8   24.29    2.06   0
  -1   7   8   27.00    3.18   0
   1   7  -8   30.18    2.84   0
  -1  -7   8   28.50    2.69   0
  -1   7   8   27.20    2.74   0
  -1  -7   8   27.31    2.71   0
   0   7   8   40.82    3.51   0
   0  -7  -8   45.42    2.91   0
   0   7  -8   42.97    2.89   0
   0   7   8   45.51    4.05   0
   0  -7   8   44.02    2.79   0
   0   7   8   39.67    2.81   0
   0  -7   8   43.12    2.82   0
   1   7   8  117.75    6.93   0
   1  -7   8  110.99    2.71   0
  -1  -7  -8  119.34    2.77   0
  -1   7  -8  119.39    3.34   0
   1   7   8  108.20    3.24   0
   1  -7   8  121.88    2.77   0
   1  -7   8  115.00    2.55   0
   1   7   8  115.53    6.53   0
  -2  -7  -8   44.38    3.08   0
   2  -7   8   38.42    3.05   0
  -2   7  -8   43.59    2.26   0
   2  -7   8   42.64    3.02   0
   2   7   8   36.58    2.25   0
   2  -7   8   41.05    2.13   0
   3  -7   8   32.39    2.36   0
   3  -7   8   33.54    3.09   0
  -3  -7  -8   33.17    3.04   0
  -3   7  -8   32.17    3.13   0
   3   7   8   29.43    2.30   0
   3  -7   8   33.97    2.19   0
   4  -7   8    4.77    2.96   0
  -4  -7  -8    4.96    3.01   0
   4   7   8    4.17    1.98   0
  -4   7  -8    2.35    2.20   0
   4  -7   8    2.94    3.06   0
   4  -7   8    4.15    2.90   0
   5   7   8   74.03    3.48   0
  -5  -7  -8   85.12    3.59   0
   5  -7   8   77.86    3.76   0
  -5   7  -8   88.06    2.67   0
   5  -7   8   81.52    3.73   0
   5  -7   8   86.93    3.30   0
   6  -7   8  251.07    6.66   0
  -6  -7  -8  273.77    4.24   0
  -6   7  -8  281.60    3.63   0
   6  -7   8  253.64    6.64   0
   6   7   8  249.07    4.66   0
   6  -7   8  277.09    4.10   0
   7   7   8    1.25    3.39   0
  -7   7  -8    0.70    2.38   0
  -7  -7  -8    2.68    3.29   0
   7  -7   8    3.58    3.08   0
  12  -8  -8  128.54    3.94   0
 -12  -8   8  125.28    3.05   0
 -12  -8   8  128.85    3.20   0
 -12  -8   8  128.48    3.18   0
 -12   8   8  132.87    4.13   0
 -12   8   8  125.48    3.15   0
  11  -8  -8  240.18    3.73   0
 -11  -8   8  240.51    3.50   0
 -11  -8   8  256.09    3.62   0
 -11  -8   8  261.38    4.42   0
 -11   8   8  240.48    3.80   0
 -11   8   8  258.55    4.19   0
 -10  -8   8  163.42    3.65   0
 -10  -8   8  173.85    3.95   0
 -10  -8   8  170.75    3.05   0
 -10   8   8  162.74    3.20   0
  10  -8  -8  180.65    3.91   0
 -10   8   8  178.73    3.80   0
  -9  -8   8  213.14    3.74   0
  -9  -8   8  203.94    3.30   0
   9  -8  -8  201.34    3.24   0
  -9  -8   8  222.03    3.92   0
  -9   8   8  204.77    3.96   0
  -9   8   8  215.22    3.94   0
  -8  -8   8   61.55    2.50   0
   8  -8  -8   60.47    2.42   0
  -8   8   8   60.01    3.20   0
  -8  -8   8   59.58    2.38   0
  -8   8   8   60.65    3.17   0
  -7  -8   8  141.56    2.88   0
   7  -8  -8  136.94    2.77   0
  -7   8   8  126.82    2.82   0
  -7  -8   8  139.99    2.75   0
  -7   8   8  138.80    2.92   0
  -6   8   8   12.04    3.05   0
  -6  -8   8   10.47    2.73   0
  -6  -8   8   13.11    2.13   0
   6  -8  -8   10.37    2.83   0
  -6   8   8   12.81    2.10   0
  -5   8   8   13.02    2.09   0
  -5  -8   8   17.61    2.71   0
   5  -8  -8   15.93    2.83   0
  -5  -8   8   12.48    2.03   0
  -5   8   8   14.71    2.74   0
  -4   8   8   50.00    2.42   0
  -4  -8   8   51.66    2.82   0
   4  -8  -8   46.10    2.20   0
  -4  -8   8   52.65    3.02   0
   4   8  -8   52.26    3.17   0
  -4   8   8   54.25    2.98   0
  -3   8   8  753.13    6.88   0
  -3  -8   8  743.15    5.30   0
   3  -8  -8  711.43    4.81   0
   3   8  -8  683.52    4.89   0
  -3  -8   8  752.80    5.09   0
  -3   8   8  692.46    4.78   0
  -2   8   8   10.79    2.79   0
  -2  -8   8   13.30    2.73   0
   2  -8  -8   12.66    2.65   0
  -2   8   8   11.30    2.98   0
   2   8  -8   10.21    2.10   0
  -2  -8   8   11.51    1.97   0
  -2   8   8   12.61    1.90   0
  -1   8   8   54.88    4.05   0
  -1  -8   8   57.50    2.95   0
   1  -8  -8   55.72    2.98   0
  -1   8   8   53.89    4.09   0
   1   8  -8   56.95    2.31   0
  -1  -8   8   59.11    2.28   0
  -1   8   8   48.79    2.97   0
   0  -8   8  164.33    3.02   0
   0  -8   8  157.13    2.94   0
   0  -8  -8  177.22    3.59   0
   0   8  -8  167.42    2.88   0
   0   8   8  160.88    6.14   0
   0  -8   8  174.91    3.43   0
   0   8   8  158.13    3.47   0
   0   8   8  157.51    6.47   0
   1  -8   8  496.70    4.65   0
  -1  -8  -8  538.06    4.89   0
  -1   8  -8  534.40    4.19   0
   1   8   8  500.15    4.82   0
   1  -8   8  530.38    4.63   0
   1  -8   8  527.79    5.09   0
   2  -8   8  101.36    3.37   0
  -2  -8  -8  103.21    3.30   0
  -2   8  -8  103.10    2.52   0
   2   8   8   92.97    3.19   0
   2  -8   8  105.21    3.35   0
   2  -8   8   98.99    2.53   0
   3   8   8   18.43    2.93   0
  -3  -8  -8   15.65    2.98   0
   3  -8   8   19.23    3.09   0
  -3   8  -8   17.55    2.11   0
   3  -8   8   16.86    2.98   0
   3  -8   8   16.09    2.82   0
   4  -8   8   12.99    3.20   0
  -4  -8  -8   10.92    3.03   0
   4  -8   8   13.94    3.25   0
  -4   8  -8   10.24    3.17   0
   4   8   8   11.34    2.97   0
   4  -8   8   15.22    2.16   0
   5  -8   8   59.59    3.62   0
  -5  -8  -8   62.33    3.50   0
   5   8   8   54.59    3.46   0
   5  -8   8   58.67    4.25   0
  -5   8  -8   65.27    3.36   0
   5  -8   8   56.71    2.48   0
   6   8   8    1.04    3.12   0
  -6  -8  -8    3.59    3.35   0
  -6   8  -8    5.01    3.23   0
   6  -8   8    1.90    3.99   0
   6  -8   8    2.31    3.96   0
   6  -8   8    4.12    2.22   0
   7   8   8   18.12    3.63   0
  -7  -8  -8   21.92    3.62   0
  -7   8  -8   22.64    3.55   0
   7  -8   8   26.08    3.45   0
  12  -9  -8   89.34    3.84   0
 -12  -9   8   88.31    2.91   0
 -12  -9   8   84.01    3.09   0
 -12  -9   8   91.25    3.89   0
 -12   9   8   83.66    3.09   0
 -12   9   8   91.16    3.81   0
 -11  -9   8  316.24    4.37   0
 -11  -9   8  320.64    4.71   0
 -11  -9   8  328.37    4.53   0
 -11   9   8  307.16    4.74   0
 -11   9   8  312.58    4.42   0
  11  -9  -8  310.13    4.01   0
 -10  -9   8    2.79    2.21   0
 -10  -9   8    4.04    3.25   0
 -10   9   8    1.23    3.16   0
 -10  -9   8    5.40    3.23   0
  10  -9  -8    1.67    3.11   0
 -10   9   8    3.49    2.40   0
  -9  -9   8   70.14    3.23   0
  -9  -9   8   75.32    3.51   0
   9  -9  -8   70.29    3.37   0
  -9   9   8   66.21    2.57   0
  -9  -9   8   71.66    2.57   0
  -9   9   8   67.68    3.36   0
  -8  -9   8   58.17    3.09   0
  -8  -9   8   48.98    2.39   0
  -8  -9   8   54.10    3.30   0
   8  -9  -8   54.39    2.43   0
  -8   9   8   49.18    2.37   0
  -8   9   8   52.14    2.48   0
  -7  -9   8   67.78    2.45   0
  -7  -9   8   67.35    3.14   0
  -7  -9   8   73.26    2.51   0
   7  -9  -8   75.69    3.19   0
  -7   9   8   66.72    3.27   0
  -7   9   8   70.09    3.33   0
  -6  -9   8   26.91    2.09   0
  -6  -9   8   29.90    2.84   0
   6  -9  -8   28.04    2.08   0
  -6  -9   8   31.10    2.16   0
  -6   9   8   32.33    2.90   0
  -6   9   8   30.49    3.06   0
  -5  -9   8    3.50    1.95   0
  -5  -9   8    3.54    2.73   0
  -5  -9   8    4.39    1.84   0
  -5   9   8    5.66    1.99   0
   5  -9  -8    4.83    2.81   0
  -5   9   8    5.56    2.04   0
  -4  -9   8  402.03    4.23   0
   4  -9  -8  407.45    3.83   0
  -4  -9   8  414.45    4.30   0
  -4  -9   8  418.67    3.98   0
   4   9  -8  378.37    3.91   0
  -4   9   8  382.63    3.78   0
  -4   9   8  397.52    4.67   0
  -3  -9   8  503.57    4.14   0
   3  -9  -8  552.81    4.28   0
   3   9  -8  530.00    4.91   0
  -3  -9   8  538.95    4.26   0
  -3  -9   8  554.01    4.42   0
  -3   9   8  523.57    4.68   0
  -3   9   8  534.27    6.12   0
   2   9  -8  636.61    5.15   0
  -2  -9   8  623.72    4.93   0
   2  -9  -8  634.76    4.54   0
  -2  -9   8  618.71    4.54   0
  -2  -9   8  672.50    5.08   0
  -2   9   8  608.82    4.87   0
  -2   9   8  637.13    7.06   0
  -1  -9   8  296.71    3.46   0
   1  -9  -8  313.64    3.52   0
  -1  -9   8  304.40    3.53   0
  -1   9   8  309.89    6.67   0
   1   9  -8  306.50    3.52   0
  -1  -9   8  313.33    3.46   0
  -1   9   8  289.49    3.88   0
  -1   9   8  301.48    6.39   0
   0   9  -8  346.20    3.69   0
   0  -9   8  353.56    4.36   0
   0  -9   8  340.61    3.77   0
   0  -9  -8  367.13    4.21   0
   0   9   8  339.33    4.07   0
   0  -9   8  351.15    3.52   0
   1  -9   8 1535.08    7.77   0
  -1  -9  -8 1480.78    6.91   0
   1  -9   8 1483.57    7.66   0
  -1   9  -8 1495.38    6.62   0
   1   9   8 1369.49    6.60   0
   1  -9   8 1483.45    6.52   0
  -2  -9  -8   51.20    2.97   0
   2  -9   8   52.07    3.20   0
  -2   9  -8   54.07    3.12   0
   2   9   8   50.44    2.33   0
   2  -9   8   51.51    2.97   0
   2  -9   8   50.83    2.49   0
  -3  -9  -8   15.37    2.97   0
   3  -9   8   15.31    2.27   0
   3   9   8   15.28    2.98   0
  -3   9  -8   16.74    3.02   0
   3  -9   8   14.66    3.02   0
   3  -9   8   15.26    2.95   0
  -4  -9  -8    1.57    2.99   0
   4  -9   8    1.48    3.00   0
   4   9   8   -0.37    3.07   0
  -4   9  -8   -1.30    2.17   0
   4  -9   8    2.31    3.00   0
   4  -9   8   -1.26    2.92   0
   5   9   8    1.38    2.26   0
   5  -9   8    2.09    3.21   0
  -5  -9  -8    1.51    3.18   0
  -5   9  -8    4.77    3.15   0
   5  -9   8    2.87    3.91   0
   5  -9   8    3.84    3.16   0
   6   9   8   40.23    3.58   0
  -6  -9  -8   44.07    3.63   0
  -6   9  -8   43.45    2.50   0
   6  -9   8   39.06    3.67   0
   6  -9   8   43.89    4.37   0
   6  -9   8   43.54    2.43   0
   7   9   8  112.60    4.23   0
   7  -9   8  114.12    7.69   0
  -7  -9  -8  117.19    3.53   0
  -7   9  -8  125.86    3.15   0
   7  -9   8  128.06    3.79   0
   7  -9   8  111.62    7.56   0
 -11 -10   8   45.30    3.34   0
 -11 -10   8   45.32    2.74   0
 -11  10   8   46.86    3.55   0
 -11 -10   8   50.49    3.49   0
  11 -10  -8   44.43    3.50   0
 -11  10   8   43.54    2.77   0
 -10 -10   8  332.05    4.23   0
 -10 -10   8  319.56    4.05   0
 -10  10   8  324.80    4.62   0
  10 -10  -8  329.33    4.55   0
 -10 -10   8  347.94    4.48   0
 -10  10   8  341.21    4.54   0
  -9 -10   8  294.93    3.57   0
  -9 -10   8  342.24    4.62   0
   9 -10  -8  305.88    3.76   0
  -9  10   8  294.16    3.73   0
  -9  10   8  309.13    3.77   0
  -9 -10   8  307.58    3.72   0
  -8 -10   8   58.03    2.39   0
  -8 -10   8   59.77    3.20   0
  -8 -10   8   60.88    3.34   0
   8 -10  -8   54.73    2.46   0
  -8  10   8   53.26    3.25   0
  -8  10   8   57.46    2.55   0
  -7 -10   8   27.84    2.99   0
  -7 -10   8   28.33    2.22   0
   7 -10  -8   27.52    2.17   0
  -7 -10   8   30.27    2.31   0
  -7  10   8   28.23    2.21   0
  -7  10   8   28.15    2.42   0
  -6 -10   8   45.94    2.94   0
   6 -10  -8   49.83    2.28   0
  -6 -10   8   49.25    2.98   0
  -6 -10   8   47.00    2.45   0
  -6  10   8   44.14    2.30   0
  -6  10   8   50.36    3.38   0
   5 -10  -8    2.42    2.75   0
  -5 -10   8   -0.63    2.55   0
  -5 -10   8   -1.80    1.82   0
  -5 -10   8    0.71    2.86   0
  -5  10   8    1.45    1.99   0
  -5  10   8    0.62    2.98   0
  -4 -10   8   72.94    3.03   0
   4 -10  -8   74.07    2.47   0
   4  10  -8   73.64    3.22   0
  -4 -10   8   75.84    3.09   0
  -4 -10   8   80.64    3.19   0
  -4  10   8   67.45    2.38   0
  -4  10   8   74.90    3.42   0
  -3 -10   8    6.35    2.79   0
   3 -10  -8    4.14    2.02   0
   3  10  -8    3.93    2.07   0
  -3 -10   8    5.41    2.02   0
  -3 -10   8    6.41    2.94   0
  -3  10   8    5.43    2.83   0
  -3  10   8    4.76    2.90   0
  -2 -10   8    2.73    2.81   0
   2 -10  -8    2.80    2.67   0
   2  10  -8    1.19    3.04   0
  -2 -10   8    0.41    2.10   0
  -2 -10   8    2.00    2.81   0
  -2  10   8    5.41    1.86   0
  -2  10   8    2.69    2.89   0
   1 -10  -8   20.96    2.88   0
  -1 -10   8   18.98    2.89   0
  -1  10   8   19.54    4.65   0
   1  10  -8   18.73    2.24   0
  -1 -10   8   20.45    2.02   0
  -1  10   8   18.93    2.89   0
  -1 -10   8   19.31    2.92   0
  -1  10   8   18.59    3.87   0
   0 -10  -8   54.78    3.12   0
   0 -10   8   54.34    3.18   0
   0 -10   8   54.46    2.44   0
   0  10  -8   54.27    3.15   0
   0  10   8   47.74    2.27   0
   0 -10   8   52.92    2.26   0
  -1 -10  -8   14.59    2.94   0
   1 -10   8   14.30    2.16   0
   1 -10   8   13.58    2.99   0
  -1  10  -8   14.45    3.02   0
   1  10   8   15.67    2.95   0
   1 -10   8   15.93    2.06   0
   2 -10   8    0.77    2.97   0
   2 -10   8    0.33    2.91   0
  -2 -10  -8    1.02    2.09   0
  -2  10  -8    0.81    2.15   0
   2  10   8    1.24    1.99   0
   2 -10   8    1.13    1.97   0
  -3 -10  -8    1.72    3.02   0
  -3  10  -8    5.17    2.15   0
   3 -10   8    1.11    3.04   0
   3  10   8    3.12    2.15   0
   3 -10   8    2.84    2.07   0
   3 -10   8    3.11    3.00   0
  -4 -10  -8    2.03    3.04   0
   4  10   8    3.28    3.07   0
   4 -10   8    2.14    3.07   0
  -4  10  -8    2.22    2.20   0
   4 -10   8    3.09    3.01   0
   4 -10   8    4.97    3.06   0
   5 -10   8    1.65    3.25   0
  -5 -10  -8    0.81    3.30   0
   5 -10   8    3.32    3.21   0
  -5  10  -8    0.79    2.24   0
   5  10   8    3.10    2.39   0
   5 -10   8    4.71    2.13   0
   6 -10   8    8.29    4.23   0
   6  10   8    6.45    3.52   0
  -6 -10  -8    9.18    2.51   0
  -6  10  -8    6.19    2.53   0
   6 -10   8    7.99    3.49   0
   6 -10   8   10.32    3.24   0
 -11 -11   8  205.36    3.51   0
 -11 -11   8  236.24    4.55   0
 -11  11   8  225.42    4.43   0
  11 -11  -8  211.12    3.73   0
 -11 -11   8  234.69    4.36   0
 -11  11   8  219.34    3.61   0
 -10 -11   8  206.23    3.28   0
 -10 -11   8  235.57    4.32   0
 -10  11   8  210.26    4.22   0
  10 -11  -8  200.56    3.46   0
 -10  11   8  208.34    4.15   0
 -10 -11   8  208.69    3.39   0
  -9 -11   8  131.29    3.66   0
  -9 -11   8  123.91    2.81   0
  -9 -11   8  129.56    3.10   0
   9 -11  -8  131.47    2.99   0
  -9  11   8  120.77    2.96   0
  -9  11   8  130.61    3.84   0
  -8 -11   8    1.52    2.08   0
  -8 -11   8    0.50    2.13   0
   8 -11  -8    2.91    2.08   0
  -8 -11   8    1.96    2.20   0
  -8  11   8    0.29    3.23   0
  -8  11   8    1.78    2.26   0
  -7 -11   8   19.78    3.12   0
  -7 -11   8   17.02    2.15   0
   7 -11  -8   18.58    3.04   0
  -7 -11   8   19.09    3.13   0
  -7  11   8   15.90    2.19   0
  -7  11   8   17.42    3.19   0
  -6 -11   8   21.68    2.94   0
  -6 -11   8   26.42    2.21   0
  -6 -11   8   29.67    2.31   0
  -6  11   8   22.52    2.13   0
  -6  11   8   25.54    3.27   0
   6 -11  -8   27.88    3.00   0
  -5 -11   8  145.52    3.35   0
   5 -11  -8  158.59    3.52   0
  -5 -11   8  165.73    3.69   0
  -5  11   8  142.65    2.84   0
  -5 -11   8  153.82    3.43   0
  -5  11   8  152.74    3.90   0
  -4 -11   8  744.37    5.25   0
   4 -11  -8  769.47    5.32   0
  -4 -11   8  762.43    5.09   0
  -4  11   8  687.33    4.68   0
  -4 -11   8  709.17    4.74   0
  -4  11   8  723.61    6.52   0
   4  11  -8  665.26    5.01   0
   3 -11  -8  486.58    4.50   0
  -3 -11   8  452.94    4.52   0
   3  11  -8  430.98    4.02   0
  -3 -11   8  488.18    4.63   0
  -3  11   8  419.42    3.84   0
  -3 -11   8  479.58    4.59   0
  -3  11   8  449.83    5.77   0
   2 -11  -8  417.00    3.83   0
  -2 -11   8  425.01    4.41   0
   2  11  -8  417.44    4.56   0
  -2  11   8  381.53    3.70   0
  -2 -11   8  419.17    3.86   0
  -2 -11   8  428.21    4.43   0
  -2  11   8  413.44    6.55   0
   1 -11  -8  806.58    5.06   0
  -1 -11   8  789.66    5.59   0
  -1  11   8  812.22   11.94   0
   1  11  -8  843.70    5.74   0
  -1  11   8  741.03    4.87   0
  -1 -11   8  788.65    5.19   0
  -1 -11   8  830.33    5.10   0
  -1  11   8  805.30   11.67   0
   0 -11  -8  834.27    5.59   0
   0 -11   8  795.08    5.71   0
   0 -11   8  782.28    5.21   0
   0  11   8  758.33    5.37   0
   0 -11   8  800.35    5.01   0
   0  11  -8  789.36    5.10   0
  -1 -11  -8 1071.44    5.80   0
   1 -11   8 1041.11    6.58   0
   1 -11   8 1021.29    6.07   0
  -1  11  -8 1058.99    5.71   0
   1  11   8 1007.26    6.05   0
   1 -11   8 1079.78    6.18   0
  -2 -11  -8  455.52    4.71   0
   2 -11   8  404.95    4.30   0
  -2  11  -8  428.25    4.00   0
   2  11   8  374.56    3.84   0
   2 -11   8  439.79    4.94   0
   2 -11   8  450.72    4.33   0
   3 -11   8   83.28    3.60   0
  -3 -11  -8   88.70    2.76   0
   3  11   8   77.11    3.54   0
   3 -11   8   83.28    3.61   0
  -3  11  -8   88.79    2.72   0
   3 -11   8   81.63    2.59   0
   4  11   8   25.28    2.45   0
  -4 -11  -8   31.03    3.29   0
   4 -11   8   28.89    2.58   0
  -4  11  -8   34.54    2.40   0
   4 -11   8   31.47    3.46   0
   4 -11   8   33.68    3.17   0
  -5 -11  -8   64.05    2.76   0
   5  11   8   55.56    3.62   0
  -5  11  -8   71.38    2.68   0
   5 -11   8   61.45    3.72   0
   5 -11   8   64.10    3.76   0
   5 -11   8   67.30    2.58   0
  -6  11  -8  101.69    3.07   0
  -6 -11  -8  113.27    4.12   0
   6 -11   8  103.41    3.01   0
 -10 -12   8   18.69    3.36   0
 -10 -12   8   19.95    2.41   0
 -10 -12   8   21.90    3.56   0
 -10  12   8   18.32    3.55   0
  10 -12  -8   19.27    3.48   0
 -10  12   8   21.29    2.58   0
  -9 -12   8   24.13    2.40   0
  -9 -12   8   21.72    3.30   0
  -9 -12   8   24.82    3.40   0
   9 -12  -8   22.62    2.42   0
  -9  12   8   22.63    2.46   0
  -9  12   8   25.65    3.46   0
  -8 -12   8  131.40    2.86   0
  -8 -12   8  139.24    2.93   0
   8 -12  -8  143.62    3.80   0
  -8 -12   8  140.03    3.17   0
  -8  12   8  133.46    2.99   0
  -8  12   8  132.67    3.12   0
   7 -12  -8  125.28    2.80   0
  -7 -12   8  121.46    3.58   0
  -7 -12   8  123.39    2.89   0
  -7 -12   8  133.40    3.73   0
  -7  12   8  129.39    3.75   0
  -7  12   8  119.40    3.02   0
  -6 -12   8  115.30    2.67   0
   6 -12  -8  118.73    2.76   0
  -6 -12   8  124.00    2.88   0
  -6  12   8  115.19    3.51   0
  -6 -12   8  123.51    3.44   0
  -6  12   8  114.81    3.76   0
  -5 -12   8   66.37    2.36   0
   5 -12  -8   64.12    3.20   0
  -5 -12   8   66.52    2.54   0
  -5  12   8   60.90    2.48   0
  -5 -12   8   62.85    3.14   0
  -5  12   8   57.52    2.63   0
   4 -12  -8   33.58    2.30   0
  -4 -12   8   29.26    2.11   0
   4  12  -8   33.40    2.35   0
  -4  12   8   34.48    3.13   0
  -4 -12   8   36.48    2.27   0
  -4 -12   8   34.01    2.32   0
  -4  12   8   27.72    3.25   0
   3 -12  -8  183.51    3.65   0
  -3 -12   8  161.79    2.93   0
   3  12  -8  155.13    3.07   0
  -3  12   8  155.52    2.82   0
  -3 -12   8  186.44    3.75   0
  -3  12   8  165.95    4.35   0
  -3 -12   8  166.36    3.64   0
   2 -12  -8   10.24    2.04   0
  -2 -12   8    7.35    2.16   0
   2  12  -8   11.88    2.26   0
  -2  12   8    7.77    2.93   0
  -2 -12   8   10.27    2.03   0
  -2  12   8    9.98    3.11   0
  -2 -12   8   11.52    2.93   0
   1 -12  -8  153.00    2.90   0
  -1 -12   8  143.06    2.89   0
   1  12  -8  150.71    2.93   0
  -1  12   8  152.53    8.28   0
  -1  12   8  139.15    3.49   0
  -1  12   8  143.71    7.65   0
  -1 -12   8  166.25    3.63   0
  -1 -12   8  151.21    2.96   0
   0 -12   8   41.67    3.20   0
   0 -12  -8   43.24    3.21   0
   0  12  -8   46.60    3.28   0
   0  12   8   39.83    3.13   0
   0 -12   8   43.20    2.42   0
   0 -12   8   45.30    2.33   0
   1 -12   8   81.94    2.67   0
  -1 -12  -8   85.04    2.60   0
   1  12   8   76.93    3.37   0
   1 -12   8   82.12    3.49   0
   1 -12   8   79.11    3.34   0
  -1  12  -8   84.85    2.74   0
  -2 -12  -8   22.64    3.07   0
  -2  12  -8   22.04    3.24   0
   2 -12   8   22.00    3.24   0
   2 -12   8   22.76    2.35   0
   2 -12   8   21.69    2.26   0
   2  12   8   23.05    3.23   0
   3 -12   8   82.63    3.66   0
  -3 -12  -8   86.91    2.72   0
   3  12   8   73.67    2.66   0
   3 -12   8   81.32    3.56   0
  -3  12  -8   85.78    2.64   0
   3 -12   8   83.88    3.43   0
   4 -12   8   58.46    3.67   0
  -4 -12  -8   64.04    2.69   0
   4  12   8   54.39    2.65   0
  -4  12  -8   62.45    2.65   0
   4 -12   8   62.48    3.44   0
   4 -12   8   61.40    3.69   0
  -5  12  -8   71.45    2.74   0
  -5 -12  -8   85.20    3.76   0
   5  12   8   68.37    3.74   0
   5 -12   8   74.42    3.90   0
   5 -12   8   71.94    3.90   0
   5 -12   8   76.41    2.65   0
  -9 -13   8    9.08    2.42   0
  -9 -13   8   10.35    3.30   0
   9 -13  -8   11.07    3.35   0
  -9 -13   8    8.65    3.43   0
  -9  13   8   14.69    3.39   0
  -9  13   8    8.44    2.45   0
  -8 -13   8  161.40    3.79   0
   8 -13  -8  154.41    3.18   0
  -8 -13   8  179.88    4.06   0
  -8  13   8  158.25    3.93   0
  -8 -13   8  143.84    3.05   0
  -8  13   8  148.79    3.29   0
  -7 -13   8   58.35    3.27   0
   7 -13  -8   55.46    2.58   0
  -7  13   8   51.53    2.56   0
  -7 -13   8   61.42    3.44   0
  -7 -13   8   49.46    2.51   0
  -7  13   8   59.96    3.62   0
   6 -13  -8   35.39    2.38   0
  -6 -13   8   36.52    2.40   0
  -6  13   8   33.77    2.36   0
  -6 -13   8   35.39    2.43   0
  -6 -13   8   32.11    2.41   0
  -6  13   8   36.58    3.52   0
   5 -13  -8  221.46    3.85   0
  -5 -13   8  214.30    3.13   0
  -5  13   8  213.14    3.85   0
  -5 -13   8  229.10    4.08   0
  -5  13   8  219.85    4.43   0
  -5 -13   8  224.13    3.85   0
   4 -13  -8  236.87    3.83   0
  -4 -13   8  232.07    3.76   0
   4  13  -8  211.72    4.10   0
  -4  13   8  207.07    3.14   0
  -4 -13   8  251.77    4.00   0
  -4  13   8  205.71    3.82   0
  -4 -13   8  216.27    3.16   0
  -3 -13   8  236.41    3.86   0
   3 -13  -8  242.52    3.84   0
  -3 -13   8  246.43    3.84   0
   3  13  -8  217.80    4.08   0
  -3  13   8  197.77    3.09   0
  -3 -13   8  241.45    3.95   0
  -3  13   8  222.30    4.80   0
  -2 -13   8  336.21    4.17   0
   2 -13  -8  330.44    4.13   0
   2  13  -8  329.77    4.39   0
  -2 -13   8  326.38    4.15   0
  -2  13   8  310.67    4.09   0
  -2  13   8  313.02    6.00   0
  -2 -13   8  333.11    3.71   0
   1 -13  -8  496.32    4.69   0
  -1 -13   8  496.53    4.88   0
   1  13  -8  483.29    4.93   0
  -1  13   8  464.78    4.57   0
  -1 -13   8  477.24    4.17   0
  -1 -13   8  467.17    4.25   0
   0 -13  -8  224.21    4.01   0
   0 -13   8  216.93    3.95   0
   0  13  -8  217.59    4.01   0
   0  13   8  202.26    3.91   0
   0 -13   8  215.11    3.13   0
   0 -13   8  201.50    3.93   0
  -1 -13  -8   21.26    3.12   0
   1  13   8   18.68    2.34   0
  -1  13  -8   22.52    2.33   0
   1 -13   8   20.93    2.26   0
   1 -13   8   19.83    3.15   0
   1 -13   8   19.69    3.19   0
  -2 -13  -8   24.78    3.21   0
   2  13   8   20.03    2.39   0
   2 -13   8   22.71    2.42   0
  -2  13  -8   24.06    2.50   0
   2 -13   8   22.96    3.14   0
   2 -13   8   20.59    2.45   0
  -3 -13  -8   42.49    3.39   0
   3 -13   8   38.19    3.50   0
   3  13   8   40.48    3.40   0
   3 -13   8   37.28    3.47   0
  -3  13  -8   40.07    2.66   0
   3 -13   8   38.18    2.43   0
   4 -13   8   55.70    3.65   0
  -4 -13  -8   57.44    3.57   0
   4  13   8   53.31    3.61   0
  -4  13  -8   52.73    2.68   0
   4 -13   8   55.74    3.48   0
   4 -13   8   51.15    2.51   0
  -8 -14   8   16.41    2.37   0
  -8  14   8   16.32    2.58   0
  -8 -14   8   19.49    3.48   0
   8 -14  -8   17.98    2.41   0
  -8  14   8   16.54    3.64   0
  -8 -14   8   17.49    3.33   0
  -7  14   8    2.67    3.25   0
  -7 -14   8    3.39    3.12   0
  -7 -14   8    1.83    3.19   0
   7 -14  -8    2.06    2.38   0
  -7 -14   8    3.44    3.14   0
  -7  14   8    1.91    2.38   0
   6 -14  -8   -0.32    2.24   0
  -6 -14   8    5.87    3.05   0
  -6  14   8    2.67    3.16   0
  -6 -14   8    4.08    3.15   0
  -6 -14   8    1.74    2.20   0
  -6  14   8    4.02    3.38   0
  -5 -14   8    0.69    3.00   0
   5 -14  -8    1.17    2.15   0
  -5  14   8    2.76    3.19   0
  -5 -14   8    2.07    2.23   0
  -5  14   8    1.47    2.35   0
  -5 -14   8    3.71    2.19   0
  -4 -14   8   26.05    2.42   0
   4 -14  -8   24.18    2.26   0
  -4 -14   8   28.19    2.29   0
   4  14  -8   28.45    3.40   0
  -4  14   8   27.57    2.39   0
  -4 -14   8   27.79    2.43   0
  -4  14   8   22.12    2.52   0
  -3 -14   8   15.69    2.29   0
   3 -14  -8   11.63    2.28   0
  -3 -14   8   21.09    3.07   0
   3  14  -8   12.59    2.36   0
  -3  14   8   13.72    2.33   0
  -3 -14   8   16.73    3.13   0
  -3  14   8   16.65    3.37   0
  -2 -14   8    3.93    2.23   0
   2 -14  -8    2.94    2.13   0
   2  14  -8    1.74    2.24   0
  -2  14   8    4.68    3.08   0
  -2  14   8    4.85    3.88   0
  -2 -14   8    5.61    2.97   0
  -2 -14   8    5.29    2.13   0
  -1 -14   8   63.01    2.67   0
   1 -14  -8   66.12    2.57   0
  -1 -14   8   73.02    3.46   0
   1  14  -8   73.69    3.66   0
  -1  14   8   65.90    3.38   0
  -1 -14   8   72.12    3.27   0
   0 -14  -8    6.59    3.06   0
   0  14  -8    7.29    3.34   0
   0 -14   8    3.79    2.25   0
   0  14   8    2.83    3.12   0
   0 -14   8    4.95    3.09   0
   0 -14   8    4.62    2.33   0
  -1 -14  -8   31.88    2.41   0
   1 -14   8   28.53    3.38   0
   1  14   8   29.05    2.45   0
   1 -14   8   31.84    3.47   0
  -1  14  -8   33.47    2.49   0
   1 -14   8   33.58    3.26   0
  -2 -14  -8   31.03    2.53   0
   2 -14   8   24.47    2.48   0
  -2  14  -8   26.52    2.60   0
   2 -14   8   23.14    2.49   0
   2  14   8   25.17    3.39   0
   2 -14   8   30.16    3.34   0
  -3 -14  -8   38.93    2.54   0
   3 -14   8   37.32    3.65   0
  -3  14  -8   40.48    3.60   0
   3 -14   8   38.54    2.61   0
   3  14   8   29.81    2.60   0
   3 -14   8   34.80    2.64   0
   7 -15  -8  105.73    3.85   0
  -7  15   8  105.54    3.92   0
  -7 -15   8  122.64    3.88   0
  -7 -15   8   97.18    2.96   0
  -7  15   8  111.74    4.20   0
  -7 -15   8  116.26    3.78   0
   6 -15  -8   63.57    3.61   0
  -6  15   8   59.04    3.60   0
  -6 -15   8   58.71    3.40   0
  -6 -15   8   62.11    3.54   0
  -6  15   8   60.09    3.77   0
  -6 -15   8   62.23    3.46   0
  -5 -15   8  228.68    4.08   0
   5 -15  -8  225.43    4.07   0
  -5 -15   8  243.04    4.14   0
  -5  15   8  199.59    3.27   0
  -5 -15   8  227.06    4.26   0
  -5  15   8  222.68    4.67   0
  -4 -15   8  173.08    3.19   0
   4 -15  -8  191.62    4.07   0
   4  15  -8  182.55    4.24   0
  -4 -15   8  180.98    3.21   0
  -4  15   8  181.42    3.95   0
  -4 -15   8  193.17    3.32   0
  -4  15   8  163.77    3.75   0
  -3 -15   8  178.41    3.87   0
   3 -15  -8  173.21    3.03   0
   3  15  -8  155.01    3.35   0
  -3 -15   8  164.36    3.04   0
  -3  15   8  160.57    3.86   0
  -3  15   8  168.30    4.81   0
  -3 -15   8  180.95    3.95   0
  -2 -15   8   97.24    3.61   0
   2 -15  -8  104.00    3.54   0
   2  15  -8   93.17    2.92   0
  -2  15   8   91.77    3.55   0
  -2  15   8   90.06    5.25   0
  -2 -15   8   96.34    3.61   0
  -2 -15   8   94.24    2.75   0
  -1 -15   8   51.82    2.64   0
   1 -15  -8   66.03    3.48   0
  -1 -15   8   54.10    3.39   0
   1  15  -8   58.23    3.63   0
  -1 -15   8   62.92    2.60   0
  -1  15   8   50.14    2.56   0
   0 -15  -8   35.38    2.52   0
   0  15   8   28.54    2.43   0
   0 -15   8   37.59    2.50   0
   0 -15   8   37.11    3.34   0
   0  15  -8   37.71    3.51   0
   0 -15   8   36.01    3.43   0
  -1  15  -8   23.12    2.50   0
  -1 -15  -8   26.25    2.52   0
   1 -15   8   28.41    3.35   0
   1  15   8   27.37    3.45   0
   1 -15   8   29.18    3.28   0
   1 -15   8   26.73    3.36   0
  -2 -15  -8   35.36    2.56   0
  -2  15  -8   39.93    2.69   0
   2 -15   8   37.50    2.61   0
   2 -15   8   35.11    3.57   0
   2 -15   8   36.29    2.54   0
   2  15   8   31.91    2.62   0
  -5 -16   8  157.49    3.92   0
   5 -16  -8  149.64    3.10   0
  -5 -16   8  167.59    3.88   0
  -5  16   8  139.39    3.24   0
  -5 -16   8  150.62    3.35   0
  -5  16   8  151.69    4.52   0
  -4 -16   8   -1.19    3.37   0
   4 -16  -8    0.72    2.38   0
   4  16  -8    4.53    2.55   0
  -4  16   8   -3.45    3.35   0
  -4  16   8    1.57    4.30   0
  -4 -16   8    2.14    3.29   0
  -4 -16   8    1.69    2.31   0
  -3 -16   8    3.46    2.32   0
   3 -16  -8    1.24    3.17   0
   3  16  -8    2.15    2.50   0
  -3 -16   8    1.45    2.24   0
  -3  16   8    1.62    2.40   0
  -3  16   8    1.14    3.32   0
  -3 -16   8    0.24    3.35   0
  -2 -16   8    1.15    2.36   0
   2 -16  -8   -2.13    3.22   0
   2  16  -8    1.92    2.50   0
  -2  16   8    2.46    3.32   0
  -2 -16   8   -0.77    2.21   0
  -2  16   8    0.03    5.01   0
  -2 -16   8   -1.20    2.26   0
  -1 -16   8    3.88    3.25   0
   1 -16  -8    3.13    3.29   0
  -1  16   8    0.23    2.37   0
   1  16  -8    2.28    3.48   0
  -1 -16   8    0.20    3.36   0
  -1 -16   8    1.54    3.31   0
 -14   1   9  266.99    4.52   0
 -14  -1   9  256.62    4.54   0
 -14   1   9  234.66    4.16   0
 -14  -1   9  279.81    5.03   0
  14  -1  -9  254.24    4.58   0
 -13   1   9  472.28    4.92   0
 -13  -1   9  461.71    4.91   0
 -13   1   9  434.53    4.85   0
 -13  -1   9  489.91    5.56   0
  13  -1  -9  410.46    4.52   0
 -12   1   9  520.38    4.97   0
 -12  -1   9  497.01    4.29   0
  12   1  -9  510.58    5.08   0
 -12   1   9  546.64    5.51   0
 -12  -1   9  533.24    4.90   0
  12  -1  -9  483.02    4.63   0
 -11   1   9  708.21    5.33   0
  11  -1  -9  664.85    5.51   0
 -11   1   9  693.09    5.32   0
  11   1  -9  654.75    5.42   0
 -11  -1   9  708.36    5.32   0
  10  -1  -9 1552.30    7.18   0
 -10   1   9 1682.84    7.37   0
 -10   1   9 1707.90    8.04   0
 -10  -1   9 1752.06    8.02   0
  10   1  -9 1606.48    7.58   0
   9   1  -9  119.37    2.64   0
  -9  -1   9  134.27    3.39   0
  -9   1   9  124.60    2.87   0
   9  -1  -9  119.78    3.24   0
   8   1  -9  155.89    2.78   0
  -8   1   9  186.42    3.58   0
   8  -1  -9  167.66    2.84   0
  -8  -1   9  170.34    2.90   0
  -7  -1   9   26.78    2.09   0
   7   1  -9   26.48    2.73   0
  -7   1   9   32.45    2.83   0
   7  -1  -9   28.93    2.75   0
  -7  -1   9   29.22    2.07   0
  -6  -1   9  207.52    3.15   0
   6  -1  -9  210.88    3.07   0
  -6   1   9  235.93    3.72   0
  -6  -1   9  230.21    3.18   0
   6   1  -9  214.04    3.09   0
   5  -1  -9  358.46    3.73   0
  -5  -1   9  359.98    4.36   0
  -5   1   9  374.67    4.24   0
  -5  -1   9  373.84    3.75   0
   5   1  -9  351.11    3.65   0
  -5   1   9  352.68    4.45   0
   4  -1  -9 1042.43    6.01   0
  -4   1   9  986.31    6.29   0
  -4  -1   9 1015.96    6.21   0
  -4   1   9 1130.61    6.51   0
   4   1  -9 1030.23    5.86   0
  -4  -1   9 1131.32    6.43   0
  -3  -1   9  236.37    4.02   0
   3  -1  -9  240.57    3.82   0
  -3   1   9  259.69    4.06   0
  -3   1   9  234.91    3.33   0
  -3  -1   9  232.81    3.25   0
   3   1  -9  226.31    3.22   0
   2  -1  -9 1057.99    6.20   0
   2   1  -9 1008.39    6.31   0
  -2   1   9 1039.92    6.10   0
  -2   1   9 1069.19    7.08   0
  -2  -1   9 1067.19    6.48   0
  -2  -1   9 1069.90    6.18   0
   2   1  -9 1069.94    6.54   0
   1  -1  -9  299.65    4.07   0
   1   1  -9  282.46    3.67   0
  -1   1   9  298.87    4.03   0
  -1  -1   9  297.45    3.77   0
  -1  -1   9  306.23    4.09   0
  -1   1   9  293.89    4.04   0
   1   1  -9  283.80    3.59   0
   1  -1  -9  295.09    4.42   0
   0  -1  -9   74.35    2.43   0
   0   1   9   73.18    3.04   0
   0  -1  -9   76.42    3.33   0
   0  -1   9   70.06    2.39   0
   0   1   9   76.74    3.16   0
   0  -1   9   72.98    3.07   0
   0   1  -9   74.45    3.18   0
   0   1  -9   69.66    2.39   0
   1   1   9 1246.43    7.42   0
  -1  -1  -9 1325.37    7.74   0
  -1  -1  -9 1291.26    7.92   0
   1  -1   9 1272.04    7.37   0
  -1   1  -9 1316.26    7.40   0
   1   1   9 1290.46    7.76   0
   1  -1   9 1313.25    7.26   0
  -1   1  -9 1234.74    7.35   0
   2   1   9 1153.81    7.47   0
  -2   1  -9 1169.83    7.80   0
   2  -1   9 1124.91    7.24   0
  -2  -1  -9 1249.49    7.74   0
  -2   1  -9 1250.50    7.38   0
   2  -1   9 1134.88    6.56   0
   2   1   9 1137.18    7.05   0
  -2  -1  -9 1235.48    7.86   0
   3  -1   9   70.29    3.38   0
  -3  -1  -9   78.36    3.32   0
  -3   1  -9   74.15    3.30   0
  -3   1  -9   72.34    3.39   0
   3  -1   9   70.91    3.14   0
   3   1   9   74.93    3.19   0
  -3  -1  -9   74.94    3.33   0
   3   1   9   67.60    3.22   0
   4  -1   9   90.36    3.63   0
  -4  -1  -9  107.64    3.51   0
  -4   1  -9   94.87    3.68   0
  -4   1  -9  100.58    2.77   0
  -4  -1  -9   98.52    3.72   0
   4   1   9   88.85    3.59   0
   4  -1   9   89.98    2.61   0
   4   1   9   93.75    3.41   0
  -5  -1  -9   21.85    3.27   0
  -5   1  -9   21.92    3.79   0
  -5  -1  -9   23.06    3.13   0
  -5   1  -9   24.34    3.14   0
   5   1   9   18.47    3.19   0
   5  -1   9   21.14    3.85   0
   5  -1   9   21.00    2.18   0
   5   1   9   20.68    2.18   0
   6   1   9   11.76    3.99   0
  -6  -1  -9   11.87    3.96   0
  -6  -1  -9   14.31    2.33   0
  -6   1  -9   13.79    3.17   0
   6  -1   9   10.68    4.62   0
   6  -1   9   13.34    3.13   0
   6   1   9   13.33    3.22   0
   7   1   9  228.75    4.48   0
  -7  -1  -9  257.56    4.66   0
  -7   1  -9  247.17    4.44   0
   7  -1   9  218.39    4.27   0
   8  -1   9  103.42    3.82   0
   8   1   9  102.57    3.94   0
  -8  -1  -9  122.11    4.10   0
  -8   1  -9  118.04    4.01   0
 -14   2   9   92.85    3.92   0
 -14  -2   9   81.12    3.01   0
 -14   2   9   80.95    3.23   0
 -14  -2   9   94.90    4.08   0
  14  -2  -9   83.08    3.85   0
 -13   2   9   95.91    2.95   0
 -13  -2   9   99.84    3.81   0
 -13   2   9   92.81    3.11   0
 -13  -2   9  105.56    3.98   0
  13  -2  -9   89.03    3.70   0
 -12   2   9   55.27    2.63   0
 -12  -2   9   49.44    2.46   0
 -12   2   9   59.16    3.56   0
  12  -2  -9   55.57    3.44   0
 -12  -2   9   61.70    3.49   0
  11  -2  -9   84.42    2.65   0
 -11   2   9   85.34    2.66   0
 -11   2   9   80.92    2.78   0
  11   2  -9   88.31    3.38   0
 -11  -2   9   92.32    3.52   0
 -10   2   9   65.34    3.21   0
 -10   2   9   55.69    2.52   0
  10   2  -9   51.14    2.33   0
 -10  -2   9   60.53    3.31   0
  10  -2  -9   57.37    3.11   0
   9   2  -9   40.17    2.11   0
  -9   2   9   38.17    2.35   0
   9  -2  -9   42.12    2.92   0
  -9  -2   9   42.25    2.92   0
  -8  -2   9   -1.13    1.96   0
  -8   2   9   -0.09    1.86   0
   8  -2  -9    1.24    1.81   0
   8   2  -9   -0.15    1.82   0
  -8  -2   9    0.38    1.93   0
   7  -2  -9  104.98    3.11   0
  -7   2   9  102.21    2.57   0
  -7  -2   9  101.16    3.19   0
   7   2  -9  105.03    3.15   0
  -7  -2   9  107.47    2.58   0
   6  -2  -9    1.46    1.80   0
   6   2  -9    0.81    2.52   0
  -6  -2   9    1.02    1.91   0
  -6   2   9    1.36    1.88   0
  -6  -2   9    0.82    1.78   0
   5  -2  -9  904.58    5.78   0
   5   2  -9  854.07    5.32   0
  -5  -2   9  828.11    5.47   0
  -5   2   9  938.88    5.87   0
  -5  -2   9  907.13    5.39   0
   4  -2  -9   59.43    2.77   0
   4   2  -9   57.33    2.24   0
  -4   2   9   59.46    2.86   0
  -4  -2   9   61.10    3.07   0
  -4   2   9   53.23    2.29   0
  -4  -2   9   59.69    2.26   0
   3  -2  -9  139.41    2.79   0
  -3   2   9  127.33    2.91   0
   3   2  -9  134.95    2.72   0
  -3   2   9  132.39    2.75   0
  -3  -2   9  137.05    2.89   0
  -3  -2   9  140.87    2.79   0
   2   2  -9  248.60    3.41   0
  -2   2   9  260.92    3.91   0
   2   2  -9  253.95    3.49   0
  -2   2   9  255.96    3.81   0
  -2  -2   9  268.51    4.10   0
  -2  -2   9  269.75    3.46   0
   2  -2  -9  263.19    3.45   0
   1   2  -9  292.75    3.60   0
  -1   2   9  298.53    3.97   0
   1   2  -9  287.38    3.69   0
  -1   2   9  306.60    4.25   0
  -1  -2   9  304.57    3.75   0
  -1  -2   9  320.08    4.12   0
   1  -2  -9  319.76    4.10   0
   0   2   9  169.58    3.47   0
   0   2  -9  173.94    3.57   0
   0  -2  -9  174.23    4.05   0
   0   2   9  178.46    3.44   0
   0   2  -9  170.01    3.15   0
   0  -2   9  185.09    3.77   0
   0  -2   9  179.08    3.58   0
   0  -2  -9  182.73    3.59   0
  -1  -2  -9  261.22    4.11   0
   1   2   9  238.17    3.92   0
  -1  -2  -9  250.38    4.43   0
   1  -2   9  258.77    4.12   0
   1   2   9  234.66    4.25   0
   1  -2   9  242.99    3.33   0
  -1   2  -9  256.85    3.99   0
  -1   2  -9  242.76    4.11   0
  -2  -2  -9  331.41    4.65   0
  -2  -2  -9  314.75    4.24   0
   2  -2   9  330.59    4.74   0
  -2   2  -9  334.82    4.48   0
   2  -2   9  314.07    4.29   0
   2   2   9  314.80    4.57   0
  -2   2  -9  305.49    4.17   0
   2   2   9  311.73    4.45   0
  -3  -2  -9   31.59    3.00   0
   3  -2   9   27.75    3.08   0
  -3  -2  -9   33.18    3.14   0
  -3   2  -9   30.04    3.04   0
  -3   2  -9   33.00    3.01   0
   3  -2   9   30.90    2.20   0
   3   2   9   30.68    3.08   0
   3   2   9   29.19    3.02   0
   4  -2   9    1.12    2.94   0
  -4  -2  -9    1.02    2.98   0
  -4  -2  -9   -0.02    2.90   0
  -4   2  -9    0.43    2.97   0
   4   2   9    2.68    2.93   0
   4  -2   9   -1.54    2.83   0
   4   2   9    0.94    1.99   0
  -4   2  -9    1.47    3.51   0
  -5  -2  -9  106.97    3.74   0
  -5   2  -9  102.29    3.54   0
  -5  -2  -9  102.66    4.64   0
   5   2   9   85.37    3.76   0
   5  -2   9  103.02    2.68   0
   5  -2   9   88.70    4.06   0
   5   2   9   93.81    3.58   0
  -6  -2  -9   18.91    3.41   0
   6  -2   9   19.25    6.93   0
  -6  -2  -9   22.99    3.22   0
   6   2   9   17.68    4.06   0
  -6   2  -9   21.93    3.23   0
   6  -2   9   17.17    6.64   0
   6  -2   9   17.84    2.19   0
   6   2   9   20.32    3.15   0
   7   2   9  189.44    4.46   0
   7   2   9  172.99    8.65   0
  -7  -2  -9  206.94    4.63   0
  -7   2  -9  212.14    4.30   0
  -7  -2  -9  180.53    7.99   0
   7  -2   9  185.90    3.40   0
   8   2   9   48.38    3.71   0
  -8  -2  -9   57.44    3.87   0
  -8   2  -9   55.68    3.78   0
   8  -2   9   48.72    3.60   0
 -13   3   9   30.42    2.52   0
 -13   3   9   29.49    2.60   0
 -13  -3   9   34.71    2.47   0
  13  -3  -9   27.98    3.31   0
 -13  -3   9   36.13    3.56   0
 -12   3   9   80.07    3.52   0
  12  -3  -9   77.43    3.44   0
 -12   3   9   79.90    3.65   0
 -12  -3   9   71.83    2.62   0
 -12  -3   9   86.58    2.83   0
 -11   3   9  392.94    3.83   0
 -11   3   9  398.57    4.84   0
 -11  -3   9  419.42    4.26   0
  11  -3  -9  399.19    4.65   0
 -10   3   9  105.34    3.40   0
 -10   3   9  104.53    2.71   0
  10  -3  -9   93.21    2.60   0
 -10  -3   9  109.59    3.42   0
  10   3  -9   99.50    3.28   0
  -9   3   9  955.68    5.92   0
  -9   3   9  921.26    6.03   0
  -9  -3   9  899.14    5.87   0
   9  -3  -9  886.31    5.60   0
  -9  -3   9  958.87    5.59   0
   9   3  -9  909.63    5.72   0
  -8  -3   9  145.04    3.45   0
   8  -3  -9  132.48    2.68   0
  -8   3   9  132.08    3.36   0
  -8  -3   9  126.38    3.36   0
   8   3  -9  125.48    2.63   0
  -7  -3   9    9.09    1.88   0
   7   3  -9    7.94    2.00   0
   7  -3  -9   10.04    1.90   0
  -7   3   9   10.19    2.02   0
  -7  -3   9   10.13    2.02   0
   6  -3  -9  246.15    3.25   0
  -6  -3   9  250.63    3.23   0
  -6   3   9  241.35    3.26   0
  -6  -3   9  237.23    3.74   0
   6   3  -9  227.40    3.09   0
  -5  -3   9    2.81    1.79   0
  -5   3   9    2.77    1.90   0
  -5  -3   9    3.27    1.94   0
   5   3  -9    2.32    2.44   0
   5  -3  -9    0.37    2.57   0
  -4  -3   9    6.54    1.79   0
  -4   3   9    4.81    2.46   0
  -4  -3   9    6.66    1.99   0
   4   3  -9    4.42    1.82   0
  -4   3   9    5.40    2.63   0
   4  -3  -9    5.08    1.75   0
  -3  -3   9  270.66    3.86   0
  -3   3   9  248.30    3.31   0
  -3   3   9  237.99    3.67   0
  -3  -3   9  264.35    3.52   0
   3   3  -9  243.66    3.35   0
   3   3  -9  249.58    3.80   0
   3  -3  -9  264.62    3.83   0
  -2  -3   9  118.90    2.63   0
  -2   3   9  116.55    3.24   0
  -2   3   9  113.07    3.62   0
   2   3  -9  108.97    2.66   0
  -2  -3   9  120.78    3.36   0
   2   3  -9  107.54    3.13   0
   2  -3  -9  121.44    3.22   0
  -1   3   9  450.14    4.63   0
  -1   3   9  477.94    5.64   0
   1   3  -9  460.29    4.79   0
  -1  -3   9  462.71    4.31   0
   1   3  -9  453.07    4.68   0
   1  -3  -9  458.19    4.29   0
  -1  -3   9  480.77    4.77   0
   0   3   9  721.65    5.62   0
   0   3  -9  751.24    5.22   0
   0   3   9  782.05    6.89   0
   0  -3   9  725.11    5.10   0
   0  -3  -9  744.90    5.40   0
   0  -3   9  798.03    6.04   0
   0   3  -9  719.89    5.80   0
  -1   3  -9  445.95    4.56   0
  -1  -3  -9  475.11    5.73   0
  -1   3  -9  489.67    4.80   0
   1   3   9  476.76    5.58   0
   1  -3   9  461.27    4.22   0
   1  -3   9  484.05    4.67   0
  -1  -3  -9  485.86    5.01   0
   1   3   9  423.02    4.29   0
  -2   3  -9  929.74    7.18   0
  -2   3  -9  972.22    5.80   0
  -2  -3  -9  960.35    7.78   0
   2  -3   9  981.15    7.23   0
   2  -3   9  947.18    5.98   0
   2   3   9  930.28    7.38   0
  -2  -3  -9  947.76    6.37   0
   2   3   9  880.82    6.09   0
   3  -3   9  767.14    6.95   0
  -3  -3  -9  771.40    6.97   0
  -3   3  -9  825.55    5.79   0
   3  -3   9  724.31    5.01   0
   3   3   9  711.77    6.26   0
   3   3   9  741.94    6.70   0
  -3  -3  -9  776.31    6.51   0
  -4  -3  -9  958.89    7.53   0
   4  -3   9  904.51    8.41   0
  -4  -3  -9  958.32    7.65   0
  -4   3  -9  986.46    6.25   0
   4   3   9  847.09    7.05   0
   4  -3   9  907.17    5.93   0
   4   3   9  898.48    7.27   0
   5  -3   9  458.01    7.38   0
   5  -3   9  456.24    6.93   0
  -5  -3  -9  503.83    6.25   0
  -5  -3  -9  499.81    5.94   0
   5   3   9  453.17    5.92   0
  -5   3  -9  534.28    5.08   0
   5  -3   9  452.52    4.21   0
   5   3   9  476.66    5.75   0
   6   3   9   73.16    3.68   0
  -6   3  -9   83.83    3.57   0
  -6  -3  -9   75.32    3.76   0
  -6  -3  -9   78.77    3.97   0
   6   3   9   69.73    3.84   0
   6  -3   9   72.53    2.61   0
   7   3   9   -1.23    3.43   0
  -7  -3  -9    1.76    4.04   0
   7   3   9    1.87    4.06   0
  -7   3  -9    3.47    3.34   0
  -7  -3  -9    2.75    3.34   0
   7  -3   9    1.52    3.32   0
   8   3   9   11.88    3.58   0
  -8  -3  -9   15.37    3.61   0
  -8   3  -9   14.92    2.57   0
   8  -3   9   10.90    2.47   0
 -13   4   9   17.05    2.50   0
 -13   4   9   16.97    3.45   0
 -13  -4   9   17.90    3.40   0
  13  -4  -9   15.14    3.24   0
 -13  -4   9   23.82    3.38   0
 -12   4   9   13.92    2.33   0
 -12   4   9   12.93    2.39   0
 -12  -4   9   13.90    2.32   0
  12  -4  -9   14.77    3.15   0
 -11   4   9   19.75    2.30   0
 -11   4   9   21.04    3.18   0
 -11  -4   9   19.62    2.24   0
  11  -4  -9   22.59    3.09   0
 -11  -4   9   19.65    2.29   0
 -10  -4   9   15.99    2.16   0
 -10   4   9   18.46    3.06   0
 -10   4   9   15.38    2.95   0
 -10  -4   9   14.49    3.05   0
  10  -4  -9   15.37    2.95   0
  -9  -4   9   42.96    2.17   0
  -9   4   9   34.26    2.28   0
  -9   4   9   35.49    2.21   0
   9  -4  -9   37.91    2.93   0
  -9  -4   9   36.24    2.35   0
   9   4  -9   32.62    2.95   0
   8  -4  -9   32.81    2.15   0
  -8   4   9   36.95    3.13   0
  -8  -4   9   35.08    2.13   0
  -8   4   9   34.87    2.16   0
  -8  -4   9   33.09    2.21   0
   8   4  -9   32.91    2.05   0
   7  -4  -9  804.97    5.55   0
  -7   4   9  787.26    5.61   0
  -7  -4   9  841.39    5.55   0
  -7  -4   9  767.52    5.48   0
   7   4  -9  759.39    4.99   0
  -6   4   9  629.93    5.08   0
  -6  -4   9  674.20    5.07   0
  -6  -4   9  612.69    4.66   0
   6   4  -9  628.67    4.97   0
   6  -4  -9  648.25    5.06   0
  -5   4   9  914.84    5.47   0
  -5  -4   9  966.52    5.49   0
  -5  -4   9  967.65    6.07   0
   5  -4  -9  989.34    5.92   0
   5   4  -9  903.67    5.34   0
  -4   4   9   45.90    2.10   0
  -4  -4   9   51.33    2.15   0
   4   4  -9   45.76    2.69   0
  -4  -4   9   50.60    2.94   0
   4  -4  -9   52.10    2.74   0
  -3   4   9  129.57    2.70   0
  -3  -4   9  134.28    2.69   0
   3   4  -9  131.37    3.42   0
  -3   4   9  128.04    3.01   0
   3   4  -9  130.58    3.19   0
  -3  -4   9  140.58    2.77   0
   3  -4  -9  137.23    2.74   0
   2   4  -9  287.68    3.53   0
  -2   4   9  280.16    3.44   0
  -2  -4   9  311.41    3.63   0
   2   4  -9  289.49    3.50   0
  -2   4   9  297.08    4.77   0
  -2  -4   9  309.15    3.64   0
   2  -4  -9  322.19    4.10   0
  -1   4   9   -0.28    1.87   0
  -1  -4   9    1.57    1.86   0
   1   4  -9    1.70    2.77   0
  -1   4   9    0.17    2.81   0
  -1  -4   9    0.56    2.66   0
   1   4  -9   -0.14    1.83   0
   1  -4  -9    2.89    1.86   0
   0  -4   9    1.85    1.92   0
   0   4  -9    3.33    1.82   0
   0   4   9    2.14    2.72   0
   0  -4   9    2.38    1.94   0
   0  -4  -9    5.33    2.59   0
   0   4  -9    1.86    2.01   0
   0   4   9    1.72    1.82   0
  -1   4  -9   75.26    2.50   0
  -1   4  -9   85.72    3.21   0
   1   4   9   80.09    3.48   0
   1  -4   9   74.65    2.41   0
  -1  -4  -9   80.64    2.57   0
   1   4   9   77.84    3.15   0
   1  -4   9   82.91    3.22   0
  -2   4  -9    1.66    2.08   0
  -2  -4  -9    0.21    2.91   0
   2  -4   9   -1.44    2.73   0
  -2  -4  -9    2.01    2.79   0
   2   4   9    1.80    2.85   0
   2  -4   9    0.18    2.83   0
   2   4   9    0.68    2.04   0
  -3  -4  -9   17.82    3.04   0
  -3   4  -9   22.05    3.04   0
   3  -4   9   19.89    2.96   0
   3   4   9   17.89    2.95   0
   3  -4   9   17.54    2.14   0
  -3  -4  -9   19.37    2.93   0
   3   4   9   19.17    2.96   0
   4  -4   9   34.64    3.34   0
  -4  -4  -9   33.42    3.35   0
  -4   4  -9   32.93    2.44   0
   4   4   9   29.92    3.15   0
   4  -4   9   34.94    3.04   0
  -4  -4  -9   37.05    3.20   0
   4   4   9   33.53    3.28   0
   5  -4   9  108.52    4.25   0
   5  -4   9  116.66    4.96   0
  -5  -4  -9  119.79    4.13   0
   5   4   9  107.59    3.80   0
  -5   4  -9  121.21    2.85   0
   5  -4   9  119.88    3.46   0
  -5  -4  -9  121.94    4.09   0
   5   4   9  115.81    4.02   0
   6   4   9  191.56    4.68   0
  -6  -4  -9  183.45    4.76   0
   6   4   9  182.59    5.18   0
  -6  -4  -9  200.60    4.75   0
   6  -4   9  174.60    9.85   0
  -6   4  -9  213.55    4.07   0
   6  -4   9  164.54   10.10   0
   6  -4   9  175.58    3.13   0
   7   4   9  116.69    4.36   0
   7   4   9  105.71    5.13   0
  -7  -4  -9  122.21    4.43   0
  -7  -4  -9  116.23    4.62   0
  -7   4  -9  131.27    3.94   0
   7  -4   9  113.47    3.73   0
 -13  -5   9   20.93    2.51   0
 -13  -5   9   20.06    3.48   0
 -13  -5   9   24.08    3.54   0
 -13   5   9   22.17    3.62   0
  13  -5  -9   22.39    2.52   0
 -13   5   9   23.70    2.48   0
 -12   5   9   45.58    2.51   0
 -12  -5   9   42.84    2.55   0
  12  -5  -9   46.59    3.39   0
 -12  -5   9   45.64    2.54   0
 -12   5   9   46.22    3.51   0
 -11   5   9  206.60    4.10   0
 -11  -5   9  208.44    4.00   0
 -11   5   9  212.20    3.25   0
 -11  -5   9  218.54    3.40   0
  11  -5  -9  213.25    3.99   0
 -10   5   9  218.29    3.94   0
 -10   5   9  218.22    3.24   0
 -10  -5   9  233.58    3.94   0
  10  -5  -9  209.31    3.26   0
 -10  -5   9  205.14    3.26   0
  -9   5   9  531.73    4.58   0
  -9   5   9  590.83    5.05   0
   9  -5  -9  575.71    5.09   0
  -9  -5   9  570.83    4.48   0
  -9  -5   9  552.69    4.93   0
  -8   5   9  175.01    2.98   0
  -8   5   9  188.83    3.75   0
  -8  -5   9  190.59    3.01   0
  -8  -5   9  185.57    3.70   0
   8  -5  -9  194.27    3.60   0
  -7   5   9    6.70    2.69   0
  -7   5   9    7.36    2.04   0
  -7  -5   9    8.76    2.78   0
  -7  -5   9    8.29    2.99   0
   7   5  -9    8.31    1.87   0
   7  -5  -9   10.33    1.87   0
  -6   5   9   25.93    2.83   0
  -6  -5   9   28.47    2.13   0
  -6  -5   9   33.15    2.71   0
   6   5  -9   30.17    2.65   0
   6  -5  -9   29.56    2.10   0
   5   5  -9  359.98    3.98   0
  -5   5   9  345.19    4.13   0
  -5  -5   9  353.44    3.57   0
  -5  -5   9  358.69    3.79   0
   5  -5  -9  371.05    4.14   0
  -4   5   9  132.70    3.15   0
  -4  -5   9  129.52    2.64   0
   4   5  -9  127.10    2.57   0
   4  -5  -9  136.46    3.15   0
  -4  -5   9  141.48    2.78   0
  -3   5   9   29.90    2.04   0
   3   5  -9   28.32    2.75   0
  -3   5   9   32.26    3.12   0
  -3  -5   9   32.68    2.06   0
  -3  -5   9   32.96    2.73   0
   3  -5  -9   35.44    2.74   0
   3   5  -9   27.88    2.00   0
   2   5  -9   77.60    2.38   0
   2   5  -9   78.81    2.48   0
  -2  -5   9   89.51    3.07   0
  -2  -5   9   83.50    2.46   0
   2  -5  -9   80.64    2.36   0
  -2   5   9   78.94    3.46   0
  -2   5   9   78.85    3.00   0
  -1  -5   9  223.53    3.18   0
   1   5  -9  211.54    3.08   0
   1   5  -9  208.26    3.68   0
  -1   5   9  221.20    4.49   0
   1  -5  -9  237.23    3.73   0
  -1  -5   9  232.07    3.64   0
  -1   5   9  215.16    3.63   0
   0  -5   9  515.40    5.01   0
   0   5  -9  490.83    4.23   0
   0  -5  -9  494.42    4.40   0
   0   5   9  509.42    6.34   0
   0  -5   9  514.71    4.68   0
   0   5   9  466.88    4.20   0
   1  -5   9 1817.66    8.71   0
  -1   5  -9 1821.56    7.97   0
  -1  -5  -9 1807.72    8.41   0
   1   5   9 1725.28   11.15   0
   1  -5   9 1797.65    7.78   0
   1   5   9 1693.36    8.13   0
  -2   5  -9 1827.72    7.83   0
  -2  -5  -9 1751.06    8.48   0
   2  -5   9 1630.82    7.05   0
   2   5   9 1591.24    8.07   0
   2   5   9 1585.11   10.97   0
   2  -5   9 1736.97    9.02   0
  -3  -5  -9  965.43    9.10   0
  -3   5  -9 1001.46    5.59   0
  -3  -5  -9  961.77    6.83   0
   3   5   9  904.39    6.47   0
   3  -5   9  931.77    6.87   0
   3  -5   9  968.78    5.84   0
   3   5   9  951.01    9.15   0
   4  -5   9  458.99    6.08   0
  -4  -5  -9  483.23    6.70   0
  -4   5  -9  514.51    4.83   0
   4  -5   9  481.39    6.12   0
   4   5   9  443.03    5.20   0
  -4  -5  -9  502.69    5.50   0
   4  -5   9  490.05    4.63   0
   4   5   9  449.57    6.48   0
   5   5   9  386.10    6.20   0
   5  -5   9  365.33    6.26   0
   5  -5   9  369.93    6.70   0
  -5  -5  -9  391.65    6.67   0
   5   5   9  364.73    5.17   0
  -5   5  -9  419.07    4.71   0
  -5  -5  -9  395.09    5.40   0
   5  -5   9  360.95    3.80   0
   6   5   9   52.88    3.76   0
  -6  -5  -9   52.98    3.67   0
  -6   5  -9   54.29    2.60   0
   6  -5   9   47.35    6.05   0
   6   5   9   46.04    3.59   0
   6  -5   9   54.86    3.27   0
   6  -5   9   45.18    6.06   0
  -6  -5  -9   50.32    3.63   0
  -7   5  -9   34.28    2.60   0
  -7  -5  -9   33.32    4.40   0
   7   5   9   28.26    3.64   0
  -7  -5  -9   32.95    3.69   0
   7  -5   9   31.30    2.46   0
 -13  -6   9   40.49    3.70   0
 -13  -6   9   35.36    3.43   0
 -13  -6   9   36.16    3.58   0
  13  -6  -9   33.62    3.52   0
 -13   6   9   39.44    3.74   0
 -13   6   9   37.22    3.60   0
 -13  -6   9   34.91    2.74   0
 -12  -6   9   17.99    3.27   0
 -12  -6   9   23.09    3.31   0
  12  -6  -9   15.87    3.36   0
 -12   6   9   20.11    3.50   0
 -12   6   9   22.79    3.45   0
 -11   6   9   59.43    2.61   0
 -11  -6   9   66.67    3.50   0
  11  -6  -9   58.70    3.32   0
 -11  -6   9   58.32    2.63   0
 -11   6   9   56.00    2.68   0
 -10   6   9   86.76    2.68   0
  10  -6  -9   86.32    2.73   0
 -10  -6   9   88.59    2.63   0
 -10  -6   9   83.64    2.65   0
 -10   6   9   82.94    3.58   0
  -9   6   9  276.38    4.13   0
  -9  -6   9  268.16    4.06   0
  -9  -6   9  277.99    3.91   0
   9  -6  -9  266.19    3.45   0
  -9   6   9  250.46    3.48   0
  -8   6   9  686.32    5.40   0
  -8  -6   9  654.89    5.25   0
  -8  -6   9  657.16    4.62   0
   8  -6  -9  629.55    4.65   0
  -8   6   9  603.94    4.65   0
  -7   6   9  438.27    4.48   0
  -7   6   9  479.02    4.89   0
  -7  -6   9  442.15    4.15   0
  -7  -6   9  451.65    3.93   0
   7  -6  -9  456.00    4.49   0
  -6   6   9  381.19    4.64   0
  -6  -6   9  375.13    4.48   0
  -6  -6   9  362.71    3.70   0
   6  -6  -9  361.56    4.19   0
  -6   6   9  340.45    3.69   0
  -5   6   9   81.53    3.29   0
  -5  -6   9   81.38    3.25   0
  -5  -6   9   85.25    2.95   0
   5  -6  -9   75.85    2.29   0
  -5   6   9   74.71    3.02   0
   4   6  -9  112.75    2.65   0
  -4  -6   9  118.49    2.63   0
   4  -6  -9  116.65    3.10   0
  -4  -6   9  115.40    2.51   0
  -4   6   9  108.80    3.03   0
  -3   6   9   41.48    3.19   0
   3  -6  -9   45.11    2.10   0
  -3  -6   9   43.66    2.20   0
  -3  -6   9   47.57    2.83   0
   3   6  -9   44.47    2.20   0
  -3   6   9   46.00    2.80   0
   2   6  -9    1.84    1.86   0
  -2   6   9    3.15    2.82   0
   2  -6  -9    5.67    2.57   0
  -2  -6   9    9.83    2.56   0
  -2  -6   9    4.71    2.59   0
  -2   6   9    5.01    2.54   0
   1   6  -9   18.62    2.01   0
  -1  -6   9   18.96    1.95   0
  -1   6   9   20.92    3.61   0
   1  -6  -9   21.29    2.74   0
  -1  -6   9   19.54    2.01   0
  -1   6   9   20.12    2.65   0
   0  -6   9  233.92    3.40   0
   0  -6  -9  245.40    3.89   0
   0   6   9  241.31    5.05   0
   0  -6   9  236.47    3.66   0
   0   6  -9  234.40    3.27   0
   0   6   9  219.35    3.20   0
  -1   6  -9   13.37    2.08   0
   1  -6   9    9.77    2.88   0
  -1  -6  -9   12.98    2.86   0
   1  -6   9   14.07    2.92   0
   1   6   9   14.59    2.95   0
   1   6   9   10.48    1.98   0
   2  -6   9  271.98    4.35   0
  -2   6  -9  260.57    3.35   0
   2   6   9  240.32    4.02   0
   2  -6   9  254.80    3.30   0
  -2  -6  -9  268.41    4.20   0
   2   6   9  253.30    6.16   0
   3  -6   9  151.03    3.95   0
  -3   6  -9  171.56    2.98   0
  -3  -6  -9  167.12    3.83   0
   3   6   9  150.77    3.73   0
   3  -6   9  151.97    2.82   0
   3  -6   9  158.72    3.34   0
   3   6   9  162.02    5.69   0
   4   6   9   63.80    4.65   0
   4  -6   9   63.61    3.54   0
  -4   6  -9   69.15    3.44   0
   4   6   9   61.86    3.23   0
  -4  -6  -9   66.42    2.62   0
   4  -6   9   65.19    3.54   0
   4  -6   9   68.38    3.21   0
  -5  -6  -9  378.14    7.72   0
   5  -6   9  357.54    6.49   0
   5   6   9  333.31    4.94   0
   5  -6   9  368.84    6.55   0
  -5   6  -9  411.60    4.65   0
  -5  -6  -9  375.26    4.67   0
   5  -6   9  361.93    3.80   0
   6  -6   9   22.77    5.00   0
  -6  -6  -9   23.74    4.39   0
  -6   6  -9   23.87    2.44   0
   6  -6   9   21.96    5.01   0
   6   6   9   22.98    3.40   0
  -6  -6  -9   23.21    3.39   0
   6  -6   9   26.13    3.23   0
   7   6   9    3.42    3.49   0
  -7   6  -9    4.89    3.38   0
  -7  -6  -9    3.35    4.20   0
   7  -6   9    5.73    3.21   0
  -7  -6  -9    5.09    4.18   0
 -13  -7   9  107.02    3.25   0
 -13  -7   9  116.83    3.90   0
 -13  -7   9  106.76    3.08   0
 -13   7   9  107.13    3.31   0
 -13   7   9  104.36    3.14   0
  12  -7  -9   69.52    3.60   0
 -12  -7   9   70.21    3.46   0
 -12  -7   9   75.50    3.62   0
 -12  -7   9   67.83    2.76   0
 -12   7   9   62.55    2.89   0
 -12   7   9   69.82    3.66   0
  11  -7  -9  193.03    4.05   0
 -11  -7   9  205.72    4.04   0
 -11  -7   9  186.96    3.99   0
 -11   7   9  180.11    3.40   0
 -11   7   9  188.83    3.21   0
  10  -7  -9  304.05    4.35   0
 -10   7   9  315.95    4.34   0
 -10  -7   9  315.97    4.38   0
 -10  -7   9  312.06    3.66   0
 -10   7   9  298.85    3.81   0
  -9   7   9   78.97    2.58   0
  -9  -7   9   78.60    2.65   0
  -9  -7   9   84.40    3.29   0
   9  -7  -9   83.60    3.27   0
  -9   7   9   83.14    3.36   0
  -8   7   9   73.64    3.35   0
  -8  -7   9   67.83    3.15   0
  -8  -7   9   73.60    3.14   0
   8  -7  -9   72.30    3.11   0
  -8   7   9   65.13    2.42   0
  -7   7   9  136.34    2.96   0
  -7  -7   9  137.19    2.88   0
  -7  -7   9  142.97    2.74   0
   7  -7  -9  131.93    2.76   0
  -7   7   9  134.47    3.47   0
  -6   7   9   30.77    3.03   0
   6  -7  -9   32.20    2.14   0
  -6  -7   9   29.05    2.08   0
  -6   7   9   27.43    2.90   0
  -6  -7   9   30.43    3.05   0
  -5   7   9   14.66    2.94   0
  -5  -7   9   14.81    2.14   0
   5  -7  -9   14.56    2.69   0
  -5  -7   9   14.16    1.88   0
  -5   7   9   11.50    2.82   0
  -4   7   9  125.84    3.02   0
   4   7  -9  116.74    2.73   0
   4  -7  -9  123.95    3.22   0
  -4  -7   9  137.59    3.50   0
  -4  -7   9  128.57    2.57   0
  -4   7   9  130.00    3.24   0
  -3   7   9   91.59    3.55   0
  -3   7   9   84.38    3.53   0
   3   7  -9   86.46    3.16   0
   3  -7  -9   94.27    3.11   0
  -3  -7   9   92.27    2.53   0
  -3  -7   9   86.66    2.41   0
  -3   7   9   84.64    2.37   0
  -2   7   9   58.38    3.51   0
  -2   7   9   61.90    3.37   0
   2   7  -9   59.12    2.28   0
   2  -7  -9   60.87    2.93   0
  -2  -7   9   59.74    2.24   0
  -2  -7   9   60.46    2.28   0
  -2   7   9   58.46    2.98   0
   1   7  -9   61.73    3.05   0
   1  -7  -9   61.36    3.02   0
  -1   7   9   61.21    3.54   0
  -1  -7   9   64.42    2.31   0
  -1  -7   9   60.37    2.37   0
  -1   7   9   56.10    2.36   0
   0  -7  -9   65.52    2.38   0
   0   7  -9   69.19    3.15   0
   0  -7   9   64.89    2.42   0
   0   7   9   69.63    3.74   0
   0  -7   9   71.51    2.36   0
   0   7   9   62.85    3.04   0
  -1  -7  -9  682.72    5.09   0
   1  -7   9  678.06    5.26   0
  -1   7  -9  729.16    5.35   0
   1  -7   9  680.69    4.68   0
   1   7   9  611.88    4.75   0
   1   7   9  642.12   10.04   0
   2   7   9  122.32    9.92   0
   2  -7   9  120.38    3.54   0
   2  -7   9  128.88    3.63   0
  -2  -7  -9  121.92    2.79   0
  -2   7  -9  126.11    2.74   0
   2   7   9  113.68    3.41   0
   2  -7   9  115.66    2.65   0
   3  -7   9   76.47    3.44   0
   3  -7   9   66.66    2.71   0
  -3   7  -9   76.80    2.60   0
  -3  -7  -9   77.95    2.71   0
   3   7   9   69.22    3.35   0
   3  -7   9   71.43    3.22   0
   4  -7   9   28.21    3.30   0
  -4  -7  -9   29.11    2.47   0
   4   7   9   30.42    3.17   0
  -4   7  -9   32.68    3.22   0
   4  -7   9   29.22    2.25   0
   4  -7   9   29.79    3.28   0
   5  -7   9    8.95    3.19   0
   5   7   9    8.98    3.20   0
  -5   7  -9    9.19    2.31   0
  -5  -7  -9   11.96    3.28   0
   5  -7   9   10.10    3.92   0
   5  -7   9    9.90    3.08   0
   6  -7   9    8.04    4.17   0
   6   7   9    8.66    3.28   0
  -6   7  -9    9.17    3.33   0
   6  -7   9    8.71    4.09   0
  -6  -7  -9    8.99    3.30   0
   6  -7   9   12.16    3.09   0
   7   7   9    7.76    3.53   0
  -7   7  -9    9.42    3.52   0
  -7  -7  -9    9.39    3.54   0
   7  -7   9    7.27    3.28   0
 -12  -8   9    1.55    3.23   0
  12  -8  -9    0.79    3.31   0
 -12  -8   9    3.51    2.32   0
 -12  -8   9    0.80    2.38   0
 -12   8   9    2.41    3.48   0
 -12   8   9    2.66    2.37   0
  11  -8  -9  100.04    3.68   0
 -11  -8   9   96.10    2.83   0
 -11  -8   9  102.82    3.75   0
 -11   8   9  101.90    3.77   0
 -11   8   9   98.66    2.91   0
 -11  -8   9  103.08    2.92   0
 -10  -8   9    5.81    3.08   0
 -10  -8   9    6.90    2.09   0
 -10  -8   9    9.21    3.10   0
 -10   8   9   12.75    3.16   0
  10  -8  -9   14.40    3.07   0
 -10   8   9   11.17    2.40   0
  -9  -8   9    7.10    2.28   0
  -9  -8   9    6.77    2.06   0
   9  -8  -9    5.66    2.81   0
  -9   8   9    4.93    3.10   0
  -9   8   9    5.62    2.23   0
  -8   8   9  349.15    3.87   0
  -8  -8   9  359.57    4.61   0
   8  -8  -9  358.02    4.33   0
  -8  -8   9  343.06    3.63   0
  -8   8   9  354.00    4.30   0
  -7   8   9   63.92    2.56   0
  -7  -8   9   64.42    2.44   0
   7  -8  -9   63.81    3.09   0
  -7  -8   9   64.84    3.08   0
  -7   8   9   60.57    2.43   0
  -6   8   9  171.12    3.19   0
  -6  -8   9  175.70    3.01   0
   6  -8  -9  166.97    3.52   0
  -6   8   9  163.48    3.59   0
  -6  -8   9  177.06    3.42   0
  -5   8   9  576.53    5.53   0
   5  -8  -9  553.12    4.34   0
  -5  -8   9  545.57    4.41   0
  -5   8   9  515.52    4.28   0
  -5  -8   9  563.95    4.74   0
  -4   8   9  267.27    4.03   0
   4  -8  -9  293.31    3.91   0
   4   8  -9  261.26    3.37   0
  -4  -8   9  291.08    3.45   0
  -4   8   9  266.27    3.35   0
  -4  -8   9  281.24    3.34   0
  -3   8   9    0.09    3.00   0
   3   8  -9    2.50    2.93   0
   3  -8  -9    1.79    1.91   0
  -3  -8   9    1.62    2.05   0
  -3   8   9   -0.61    2.60   0
  -3  -8   9    1.86    1.90   0
  -2   8   9   68.40    3.59   0
  -2   8   9   68.14    3.69   0
   2  -8  -9   69.46    3.07   0
   2   8  -9   67.83    2.44   0
  -2  -8   9   72.08    3.09   0
  -2   8   9   74.91    3.06   0
  -2  -8   9   68.22    3.08   0
  -1   8   9    4.95    3.53   0
   1  -8  -9    3.86    2.86   0
   1   8  -9    2.80    1.98   0
  -1   8   9    3.98    3.55   0
  -1  -8   9    5.99    2.66   0
  -1   8   9    5.25    2.83   0
  -1  -8   9    5.29    1.91   0
   0   8   9  130.68    5.69   0
   0  -8   9  131.01    2.82   0
   0  -8  -9  137.44    3.37   0
   0   8  -9  138.03    3.50   0
   0   8   9  126.11    5.43   0
   0  -8   9  139.25    2.75   0
   0   8   9  126.63    3.38   0
   0  -8   9  135.19    3.46   0
   1  -8   9   30.64    3.14   0
  -1  -8  -9   34.40    2.95   0
  -1   8  -9   35.64    2.97   0
   1  -8   9   27.51    3.01   0
   1   8   9   27.54    2.15   0
   1  -8   9   34.55    2.75   0
   2  -8   9    4.43    2.92   0
  -2  -8  -9    5.35    2.04   0
   2  -8   9    2.50    2.88   0
  -2   8  -9    2.34    2.07   0
   2   8   9    3.71    2.14   0
   2  -8   9    3.85    2.01   0
   3  -8   9  100.66    3.61   0
   3  -8   9   91.75    3.66   0
  -3  -8  -9  100.62    2.80   0
  -3   8  -9   98.26    2.67   0
   3   8   9   86.06    2.70   0
   3  -8   9  101.93    3.40   0
   4  -8   9  337.14    5.23   0
   4   8   9  307.11    4.50   0
   4  -8   9  321.33    5.23   0
  -4  -8  -9  331.34    4.11   0
  -4   8  -9  348.54    3.75   0
   4  -8   9  325.61    4.20   0
   5   8   9  187.48    4.10   0
   5  -8   9  184.81    5.34   0
  -5  -8  -9  208.14    4.31   0
  -5   8  -9  206.87    3.29   0
   5  -8   9  194.29    4.85   0
   5  -8   9  198.51    3.95   0
   6  -8   9  235.82    6.00   0
  -6   8  -9  266.21    3.63   0
  -6  -8  -9  291.37    4.99   0
   6   8   9  243.85    4.79   0
   6  -8   9  254.51    6.67   0
   6  -8   9  277.67    4.16   0
  12  -9  -9  111.58    3.88   0
 -12  -9   9   98.88    2.99   0
 -12  -9   9  114.97    3.88   0
 -12  -9   9   99.29    3.15   0
 -12   9   9  109.92    4.02   0
 -12   9   9  101.27    3.00   0
 -11  -9   9   82.92    3.55   0
 -11  -9   9   89.16    3.75   0
 -11  -9   9   83.83    3.65   0
 -11   9   9   85.27    3.79   0
 -11   9   9   81.93    2.93   0
  11  -9  -9   83.73    3.55   0
 -10  -9   9  101.57    3.56   0
 -10  -9   9  112.38    3.80   0
 -10  -9   9  108.28    2.89   0
 -10   9   9  104.94    2.88   0
  10  -9  -9  102.39    2.79   0
 -10   9   9  108.56    3.75   0
  -9  -9   9   84.31    3.21   0
  -9  -9   9   84.95    2.72   0
  -9  -9   9   85.67    2.57   0
   9  -9  -9   84.60    2.65   0
  -9   9   9   82.50    3.49   0
  -9   9   9   86.61    3.51   0
  -8  -9   9   32.58    2.26   0
  -8  -9   9   36.35    2.38   0
   8  -9  -9   35.10    2.34   0
  -8   9   9   36.37    2.24   0
  -8  -9   9   33.29    2.33   0
  -8   9   9   38.75    2.40   0
   7  -9  -9   33.57    2.22   0
  -7  -9   9   40.26    3.19   0
  -7   9   9   36.10    3.07   0
  -7  -9   9   34.10    2.29   0
  -7   9   9   40.11    3.31   0
   6  -9  -9   11.13    2.02   0
  -6  -9   9   10.04    2.22   0
  -6   9   9   11.41    3.02   0
  -6  -9   9    8.81    2.02   0
  -6   9   9   11.03    3.16   0
  -5   9   9  324.22    4.62   0
  -5  -9   9  316.61    3.48   0
   5  -9  -9  330.11    4.08   0
  -5  -9   9  322.75    3.64   0
  -5   9   9  304.84    4.07   0
  -4   9   9  738.11    6.50   0
  -4  -9   9  729.04    5.24   0
   4   9  -9  662.85    4.85   0
   4  -9  -9  747.17    5.26   0
  -4  -9   9  745.98    5.08   0
  -4   9   9  706.43    5.20   0
  -3   9   9  292.92    4.97   0
  -3  -9   9  291.11    4.04   0
   3  -9  -9  307.25    3.98   0
   3   9  -9  273.27    3.43   0
  -3  -9   9  298.85    3.50   0
  -3   9   9  275.88    3.35   0
  -2  -9   9   80.15    2.42   0
  -2  -9   9   79.75    3.03   0
   2  -9  -9   86.41    3.22   0
   2   9  -9   84.99    3.32   0
  -2  -9   9   85.38    3.20   0
  -2   9   9   78.20    2.47   0
  -2   9   9   82.68    4.46   0
  -2   9   9   83.59    3.75   0
  -1  -9   9  234.68    3.28   0
   1  -9  -9  257.23    3.92   0
   1   9  -9  238.31    3.26   0
  -1   9   9  239.54    5.68   0
  -1  -9   9  260.23    3.76   0
  -1   9   9  220.28    3.13   0
  -1   9   9  239.43    6.06   0
  -1  -9   9  243.32    3.32   0
   0  -9   9   74.67    3.20   0
   0  -9  -9   78.08    2.40   0
   0   9  -9   79.14    3.20   0
   0   9   9   77.19    2.52   0
   0  -9   9   75.24    2.40   0
   0  -9   9   78.51    2.56   0
   1  -9   9   20.33    3.04   0
  -1  -9  -9   21.86    2.11   0
  -1   9  -9   24.78    3.00   0
   1   9   9   23.68    2.90   0
   1  -9   9   20.61    2.05   0
   1  -9   9   20.42    2.28   0
   2  -9   9    9.74    2.23   0
  -2  -9  -9    8.95    2.96   0
  -2   9  -9   11.57    3.00   0
   2   9   9   10.46    2.90   0
   2  -9   9    8.78    3.11   0
   2  -9   9    8.26    2.94   0
   3  -9   9   69.90    2.74   0
  -3  -9  -9   78.58    3.44   0
   3  -9   9   71.62    3.44   0
   3   9   9   66.42    2.58   0
  -3   9  -9   74.94    3.38   0
   3  -9   9   75.84    3.25   0
   4  -9   9    8.65    3.19   0
   4  -9   9   11.55    3.30   0
  -4  -9  -9   12.31    2.39   0
   4   9   9    8.16    2.29   0
  -4   9  -9   11.88    3.18   0
   4  -9   9   13.35    3.00   0
  -5  -9  -9   83.21    3.77   0
   5  -9   9   75.31    4.03   0
  -5   9  -9   80.10    3.61   0
   5   9   9   67.32    3.63   0
   5  -9   9   75.45    2.60   0
   5  -9   9   78.86    3.98   0
   6   9   9    4.91    3.51   0
  -6  -9  -9    4.38    3.48   0
  -6   9  -9    3.62    3.37   0
   6  -9   9    2.76    3.35   0
   6  -9   9    2.87    3.43   0
   6  -9   9    2.46    2.28   0
 -11 -10   9    9.66    2.29   0
 -11 -10   9   11.82    3.49   0
 -11 -10   9    8.60    3.41   0
 -11  10   9   11.57    3.45   0
  11 -10  -9    7.98    2.37   0
 -11  10   9    9.42    3.50   0
 -10 -10   9    4.05    2.25   0
 -10 -10   9    3.10    3.39   0
 -10  10   9    1.34    2.34   0
 -10 -10   9    0.87    2.31   0
  10 -10  -9    4.75    3.16   0
 -10  10   9    4.63    2.27   0
  -9 -10   9   14.14    2.16   0
  -9 -10   9   18.20    2.42   0
   9 -10  -9   19.35    3.11   0
  -9  10   9   17.13    3.23   0
  -9 -10   9   15.44    2.27   0
  -9  10   9   17.84    3.36   0
  -8 -10   9    5.57    2.14   0
  -8 -10   9    3.51    2.26   0
   8 -10  -9    1.95    2.16   0
  -8  10   9    4.70    2.15   0
  -8 -10   9    3.02    2.13   0
  -8  10   9    6.94    3.24   0
  -7 -10   9  444.33    4.50   0
  -7 -10   9  401.81    3.84   0
   7 -10  -9  447.27    4.51   0
  -7 -10   9  480.49    4.83   0
  -7  10   9  421.33    4.57   0
  -7  10   9  435.34    4.96   0
  -6 -10   9  362.05    3.66   0
  -6 -10   9  366.93    4.14   0
   6 -10  -9  364.05    3.74   0
  -6 -10   9  391.50    4.49   0
  -6  10   9  344.34    3.68   0
  -6  10   9  364.03    4.82   0
  -5 -10   9  455.88    3.95   0
  -5 -10   9  460.05    4.45   0
   5 -10  -9  486.74    4.57   0
  -5 -10   9  501.55    4.77   0
  -5  10   9  453.26    4.54   0
  -5  10   9  467.08    5.35   0
  -4 -10   9  239.67    3.75   0
  -4 -10   9  257.05    3.91   0
   4 -10  -9  269.50    3.87   0
   4  10  -9  241.93    4.00   0
  -4 -10   9  250.30    3.31   0
  -4  10   9  256.59    3.84   0
  -4  10   9  256.15    4.58   0
  -3 -10   9  232.64    3.78   0
  -3 -10   9  248.47    3.87   0
   3 -10  -9  231.99    3.16   0
   3  10  -9  224.26    3.26   0
  -3 -10   9  243.59    3.30   0
  -3  10   9  213.92    3.07   0
  -3  10   9  235.66    4.71   0
  -2 -10   9  597.10    4.49   0
  -2 -10   9  597.80    4.92   0
   2 -10  -9  643.23    5.03   0
   2  10  -9  612.47    5.15   0
  -2  10   9  614.00    7.89   0
  -2 -10   9  617.24    4.54   0
  -2  10   9  585.68    4.90   0
  -2  10   9  603.33    7.19   0
  -1 -10   9   72.55    2.59   0
  -1 -10   9   72.59    3.15   0
   1 -10  -9   77.77    3.23   0
  -1  10   9   68.45    4.80   0
  -1  10   9   68.39    2.43   0
  -1 -10   9   73.33    2.35   0
   1  10  -9   74.26    2.51   0
  -1  10   9   69.16    5.10   0
   0 -10   9  348.92    4.39   0
   0 -10   9  320.47    3.70   0
   0 -10  -9  344.92    3.64   0
   0  10  -9  354.05    4.34   0
   0  10   9  312.90    4.06   0
   0 -10   9  337.93    3.55   0
  -1 -10  -9   64.03    2.38   0
   1 -10   9   53.56    2.49   0
  -1  10  -9   60.38    2.39   0
   1  10   9   50.39    2.34   0
   1 -10   9   58.42    2.40   0
   1 -10   9   60.98    3.30   0
  -2 -10  -9    4.41    3.03   0
   2 -10   9    3.72    2.19   0
  -2  10  -9    5.85    2.17   0
   2  10   9    4.31    3.00   0
   2 -10   9    5.16    3.06   0
   2 -10   9    7.18    2.06   0
  -3 -10  -9   41.96    3.30   0
   3 -10   9   35.20    2.58   0
   3  10   9   34.70    3.27   0
  -3  10  -9   34.69    2.40   0
   3 -10   9   36.07    3.32   0
   3 -10   9   35.20    3.22   0
   4 -10   9  176.41    4.35   0
  -4 -10  -9  179.24    3.45   0
   4  10   9  167.82    4.02   0
   4 -10   9  171.46    4.32   0
  -4  10  -9  180.15    3.14   0
   4 -10   9  169.30    3.13   0
   5 -10   9  213.46    4.96   0
  -5 -10  -9  233.60    3.88   0
   5  10   9  195.54    4.43   0
   5 -10   9  223.14    4.94   0
  -5  10  -9  239.57    4.33   0
   5 -10   9  217.43    3.39   0
 -11 -11   9    9.53    2.35   0
 -11 -11   9   14.92    3.56   0
 -11  11   9   12.79    3.57   0
 -11 -11   9   12.01    2.44   0
 -10 -11   9   63.90    2.70   0
 -10 -11   9   70.03    3.68   0
 -10  11   9   61.32    2.76   0
  10 -11  -9   72.95    3.53   0
 -10 -11   9   63.44    3.50   0
 -10  11   9   69.69    3.71   0
  -9 -11   9   22.18    3.12   0
  -9 -11   9   26.09    2.49   0
   9 -11  -9   25.54    3.25   0
  -9  11   9   22.66    3.37   0
  -9  11   9   21.46    3.32   0
  -9 -11   9   19.59    2.39   0
  -8 -11   9   11.35    3.20   0
  -8 -11   9   12.10    3.15   0
  -8 -11   9   16.75    2.42   0
   8 -11  -9   13.53    2.25   0
  -8  11   9   14.46    2.33   0
  -8  11   9   16.25    3.33   0
  -7 -11   9   22.99    3.06   0
  -7 -11   9   22.74    3.05   0
   7 -11  -9   24.50    2.20   0
  -7 -11   9   23.41    3.25   0
  -7  11   9   20.21    3.08   0
  -7  11   9   23.21    2.42   0
  -6 -11   9   15.90    2.14   0
  -6 -11   9   18.29    3.01   0
   6 -11  -9   18.99    2.28   0
  -6 -11   9   15.74    2.29   0
  -6  11   9   15.76    3.11   0
  -6  11   9   14.09    2.43   0
  -5 -11   9   34.56    2.21   0
  -5 -11   9   31.69    3.17   0
   5 -11  -9   34.78    2.33   0
  -5 -11   9   39.04    2.36   0
  -5  11   9   37.48    3.15   0
  -5  11   9   36.89    3.38   0
  -4 -11   9   21.24    2.91   0
  -4 -11   9   19.27    2.19   0
   4 -11  -9   23.09    2.12   0
   4  11  -9   22.84    2.30   0
  -4 -11   9   22.82    3.06   0
  -4  11   9   19.37    2.15   0
  -4  11   9   18.21    3.25   0
  -3 -11   9  128.54    3.46   0
   3 -11  -9  125.69    2.76   0
  -3 -11   9  129.51    2.81   0
   3  11  -9  120.00    3.56   0
  -3 -11   9  134.22    2.89   0
  -3  11   9  127.07    3.40   0
  -3  11   9  127.95    4.12   0
  -2 -11   9  139.31    3.45   0
   2 -11  -9  138.14    2.77   0
  -2 -11   9  134.12    3.42   0
  -2  11   9  132.71    4.55   0
   2  11  -9  129.65    3.63   0
  -2  11   9  125.32    3.56   0
  -2 -11   9  143.25    3.56   0
  -2  11   9  131.95    4.92   0
  -1 -11   9    1.89    2.11   0
   1 -11  -9    0.51    2.14   0
  -1 -11   9   -0.15    2.86   0
   1  11  -9    1.95    2.24   0
  -1  11   9    0.32    5.53   0
  -1  11   9    3.00    3.01   0
  -1 -11   9    1.50    2.04   0
  -1  11   9    0.84    4.85   0
   0 -11   9  106.73    3.53   0
   0 -11  -9  118.70    3.43   0
   0 -11   9  101.27    2.72   0
   0  11  -9  109.37    2.76   0
   0  11   9   93.70    2.57   0
   0 -11   9  115.21    2.70   0
   1 -11   9   -0.27    3.10   0
  -1 -11  -9    1.57    2.91   0
   1 -11   9    2.18    2.19   0
  -1  11  -9    2.76    3.09   0
   1  11   9    0.05    2.05   0
   1 -11   9    3.46    2.92   0
  -2 -11  -9    1.74    2.15   0
   2 -11   9    2.54    3.21   0
   2  11   9    3.30    3.05   0
  -2  11  -9    3.96    3.13   0
   2 -11   9    3.95    2.16   0
   2 -11   9    1.70    2.25   0
   3 -11   9   41.81    3.36   0
  -3 -11  -9   39.22    2.48   0
   3  11   9   35.01    3.31   0
  -3  11  -9   40.80    2.48   0
   3 -11   9   41.27    3.39   0
   3 -11   9   43.14    2.40   0
  -4 -11  -9   30.29    3.36   0
   4  11   9   24.47    2.43   0
   4 -11   9   29.08    3.48   0
  -4  11  -9   28.47    2.56   0
   4 -11   9   30.23    2.46   0
   4 -11   9   25.12    2.61   0
   5 -11   9    1.42    3.39   0
  -5 -11  -9    2.40    3.40   0
   5  11   9    1.57    3.37   0
  -5  11  -9   -0.10    2.50   0
   5 -11   9   -0.28    2.45   0
   5 -11   9    2.95    3.39   0
 -10 -12   9   14.27    2.42   0
 -10 -12   9   15.43    3.46   0
 -10  12   9   16.76    3.49   0
  10 -12  -9   12.81    3.40   0
 -10  12   9   13.22    2.50   0
 -10 -12   9   16.30    2.40   0
  -9 -12   9   62.54    2.57   0
  -9 -12   9   64.68    2.79   0
   9 -12  -9   60.39    2.66   0
  -9  12   9   62.64    3.59   0
  -9  12   9   59.64    2.75   0
  -9 -12   9   62.48    2.63   0
  -8 -12   9  193.95    3.28   0
  -8 -12   9  186.26    3.17   0
   8 -12  -9  210.44    3.96   0
  -8 -12   9  198.32    3.41   0
  -8  12   9  189.29    3.94   0
  -8  12   9  194.06    4.25   0
  -7 -12   9  129.54    3.62   0
  -7 -12   9  122.85    2.83   0
   7 -12  -9  144.32    3.66   0
  -7 -12   9  127.37    3.02   0
  -7  12   9  124.14    3.65   0
  -7  12   9  127.21    4.02   0
  -6 -12   9  317.51    3.51   0
  -6 -12   9  323.95    3.55   0
   6 -12  -9  331.76    3.61   0
  -6 -12   9  354.64    4.61   0
  -6  12   9  338.26    4.33   0
  -6  12   9  331.30    4.80   0
  -5 -12   9  229.57    3.17   0
  -5 -12   9  239.51    3.83   0
  -5 -12   9  261.13    4.10   0
  -5  12   9  218.05    3.25   0
   5 -12  -9  258.79    3.91   0
  -5  12   9  237.39    4.48   0
  -4 -12   9  255.55    3.34   0
   4 -12  -9  282.18    3.98   0
   4  12  -9  252.70    3.53   0
  -4 -12   9  264.59    3.43   0
  -4  12   9  252.41    3.32   0
  -4 -12   9  297.15    4.20   0
  -4  12   9  259.48    4.80   0
  -3 -12   9  295.65    3.46   0
   3 -12  -9  311.60    3.52   0
   3  12  -9  282.93    3.50   0
  -3 -12   9  304.41    4.24   0
  -3  12   9  284.35    3.41   0
  -3 -12   9  299.99    3.50   0
  -3  12   9  289.38    5.21   0
   2 -12  -9  614.69    4.54   0
  -2  12   9  616.36    8.67   0
  -2 -12   9  607.16    5.06   0
  -2 -12   9  589.38    4.56   0
   2  12  -9  568.69    4.53   0
  -2  12   9  579.32    4.99   0
  -2 -12   9  628.04    4.63   0
  -2  12   9  546.01    7.67   0
  -1 -12   9  273.58    4.10   0
   1 -12  -9  265.91    3.41   0
  -1 -12   9  250.78    3.40   0
   1  12  -9  262.07    4.17   0
  -1  12   9  226.40    3.26   0
  -1 -12   9  274.59    3.97   0
   0 -12   9   31.09    2.43   0
   0 -12  -9   32.36    3.09   0
   0 -12   9   33.96    3.27   0
   0  12  -9   32.63    3.31   0
   0  12   9   26.40    2.34   0
   0 -12   9   31.15    2.31   0
   1 -12   9  220.93    4.18   0
  -1 -12  -9  222.51    3.97   0
   1  12   9  186.10    3.22   0
  -1  12  -9  220.16    3.35   0
   1 -12   9  219.49    3.86   0
   1 -12   9  217.74    4.15   0
  -2 -12  -9   39.57    2.43   0
   2 -12   9   38.84    3.43   0
   2  12   9   33.25    3.25   0
  -2  12  -9   32.13    2.37   0
   2 -12   9   35.50    2.42   0
   2 -12   9   39.17    2.57   0
  -3 -12  -9   35.51    3.39   0
   3  12   9   25.08    2.49   0
   3 -12   9   30.33    3.43   0
  -3  12  -9   32.16    3.49   0
   3 -12   9   35.64    3.46   0
   3 -12   9   32.09    2.47   0
  -4 -12  -9   95.80    3.08   0
   4  12   9   78.84    2.97   0
   4 -12   9  103.95    3.99   0
  -4  12  -9  106.65    3.87   0
   4 -12   9   98.57    3.99   0
   4 -12   9   93.94    3.65   0
  -9 -13   9   41.01    3.54   0
  -9 -13   9   44.07    2.53   0
  -9 -13   9   47.02    2.77   0
   9 -13  -9   50.16    3.58   0
  -9  13   9   44.65    2.69   0
  -9  13   9   39.56    2.79   0
  -8 -13   9   72.62    2.73   0
  -8 -13   9   73.30    2.76   0
   8 -13  -9   71.49    2.72   0
  -8 -13   9   75.10    2.89   0
  -8  13   9   65.57    2.79   0
  -8  13   9   70.78    2.91   0
  -7 -13   9  151.62    3.72   0
  -7 -13   9  154.48    3.78   0
   7 -13  -9  154.82    3.97   0
  -7 -13   9  161.34    3.23   0
  -7  13   9  148.59    3.17   0
  -7  13   9  160.05    4.24   0
  -6 -13   9  109.46    2.70   0
   6 -13  -9  120.06    3.64   0
  -6 -13   9   99.67    2.70   0
  -6  13   9  105.94    2.80   0
  -6 -13   9  115.93    3.76   0
  -6  13   9  113.17    3.88   0
  -5 -13   9   13.40    2.16   0
   5 -13  -9   13.67    3.24   0
  -5 -13   9   12.60    3.24   0
  -5  13   9   15.74    3.18   0
  -5 -13   9   11.49    2.23   0
  -5  13   9   15.24    3.37   0
   4 -13  -9   29.74    3.17   0
  -4 -13   9   38.77    3.19   0
   4  13  -9   35.85    3.31   0
  -4 -13   9   31.89    2.47   0
  -4  13   9   29.81    2.39   0
  -4 -13   9   35.53    3.17   0
  -4  13   9   30.62    3.47   0
   3 -13  -9   19.56    2.21   0
  -3 -13   9   24.88    3.05   0
   3  13  -9   21.25    2.46   0
  -3 -13   9   20.18    3.17   0
  -3  13   9   18.80    3.11   0
  -3 -13   9   21.20    3.14   0
  -3  13   9   17.97    3.38   0
   2 -13  -9  203.46    3.18   0
  -2 -13   9  194.19    3.22   0
  -2  13   9  202.09    6.36   0
   2  13  -9  200.15    3.94   0
  -2 -13   9  205.78    3.29   0
  -2  13   9  182.95    3.03   0
  -2  13   9  202.73    6.61   0
  -2 -13   9  216.87    3.90   0
   1 -13  -9   78.85    2.64   0
  -1 -13   9   71.18    3.31   0
   1  13  -9   70.67    2.61   0
  -1 -13   9   73.72    3.38   0
  -1  13   9   68.59    2.58   0
  -1 -13   9   75.76    2.61   0
   0 -13  -9   20.47    2.39   0
   0 -13   9   22.04    2.37   0
   0 -13   9   18.16    3.22   0
   0  13   9   21.03    2.34   0
   0  13  -9   21.79    2.42   0
   0 -13   9   22.26    2.34   0
  -1 -13  -9   42.78    3.29   0
   1 -13   9   36.36    3.39   0
   1 -13   9   33.45    2.46   0
   1  13   9   31.48    2.43   0
  -1  13  -9   34.85    2.59   0
   1 -13   9   39.52    2.42   0
   2 -13   9   10.99    3.34   0
  -2 -13  -9   11.58    2.37   0
   2  13   9    9.17    2.38   0
   2 -13   9    9.93    3.22   0
  -2  13  -9   14.26    2.51   0
   2 -13   9   17.07    3.32   0
  -3 -13  -9   38.62    2.57   0
   3  13   9   30.83    3.50   0
   3 -13   9   30.33    2.65   0
  -3  13  -9   36.38    3.46   0
   3 -13   9   35.25    3.44   0
   3 -13   9   36.22    3.60   0
  -8 -14   9  273.30    3.80   0
  -8 -14   9  275.23    3.66   0
   8 -14  -9  287.41    3.87   0
  -8  14   9  284.62    4.49   0
  -8 -14   9  311.43    4.84   0
  -8  14   9  301.43    4.98   0
  -7 -14   9  569.70    5.05   0
   7 -14  -9  576.41    5.22   0
  -7 -14   9  553.42    5.17   0
  -7  14   9  514.27    5.11   0
  -7 -14   9  580.81    5.69   0
  -7  14   9  505.35    5.17   0
  -6 -14   9  529.54    5.02   0
   6 -14  -9  516.23    4.37   0
  -6 -14   9  520.87    4.92   0
  -6  14   9  501.32    5.05   0
  -6 -14   9  524.40    4.73   0
  -6  14   9  512.16    5.89   0
   5 -14  -9  287.82    4.31   0
  -5 -14   9  290.55    4.20   0
  -5  14   9  249.61    4.24   0
  -5 -14   9  287.89    4.24   0
  -5 -14   9  281.69    3.73   0
  -5  14   9  274.77    4.94   0
   4 -14  -9  170.42    3.09   0
  -4 -14   9  164.60    3.09   0
   4  14  -9  162.18    4.05   0
  -4  14   9  174.08    3.89   0
  -4 -14   9  170.32    3.10   0
  -4 -14   9  175.44    3.19   0
  -4  14   9  164.43    4.50   0
   3 -14  -9  129.45    3.61   0
  -3 -14   9  113.94    2.79   0
   3  14  -9  124.76    3.76   0
  -3  14   9  118.72    3.63   0
  -3 -14   9  122.22    2.86   0
  -3 -14   9  138.04    3.68   0
  -3  14   9  115.58    4.30   0
   2 -14  -9   14.08    3.21   0
  -2  14   9   11.39    5.05   0
   2  14  -9    6.95    2.31   0
  -2  14   9   12.13    2.25   0
  -2 -14   9   11.20    2.35   0
  -2  14   9   11.00    4.26   0
  -2 -14   9   10.51    2.36   0
  -2 -14   9   15.62    3.12   0
  -1 -14   9   -0.11    2.25   0
   1 -14  -9    0.73    3.16   0
   1  14  -9   -1.68    2.33   0
  -1  14   9    4.66    2.24   0
  -1 -14   9    2.54    3.14   0
  -1 -14   9   -0.37    2.20   0
   0 -14  -9  103.11    2.75   0
   0 -14   9  105.92    3.75   0
   0  14  -9  107.80    2.88   0
   0  14   9   95.06    2.76   0
   0 -14   9  103.70    3.78   0
   0 -14   9  103.12    2.85   0
  -1 -14  -9   19.62    2.35   0
   1 -14   9   19.74    3.49   0
   1 -14   9   19.79    2.49   0
  -1  14  -9   23.05    2.46   0
   1  14   9   22.43    3.33   0
   1 -14   9   20.27    2.48   0
   2 -14   9    4.23    3.37   0
  -2 -14  -9    2.51    3.33   0
   2 -14   9    1.83    3.30   0
  -2  14  -9    4.96    2.48   0
   2 -14   9    5.43    2.37   0
   2  14   9    4.37    3.36   0
   6 -15  -9    9.59    2.49   0
  -6 -15   9   13.45    3.37   0
  -6 -15   9   11.66    2.43   0
  -6  15   9   12.78    3.47   0
  -6 -15   9   13.61    3.43   0
  -6  15   9    8.32    3.58   0
   5 -15  -9   35.08    2.61   0
  -5 -15   9   39.32    3.44   0
  -5  15   9   30.84    2.54   0
  -5 -15   9   29.88    2.53   0
  -5 -15   9   36.14    3.44   0
  -5  15   9   33.04    2.81   0
   4 -15  -9    3.35    3.14   0
   4  15  -9    3.48    3.45   0
  -4 -15   9    1.16    2.32   0
  -4  15   9    3.41    3.31   0
  -4 -15   9    1.27    3.29   0
  -4 -15   9    2.76    2.25   0
  -4  15   9    0.82    3.35   0
   3 -15  -9    0.95    2.28   0
  -3 -15   9    5.50    2.29   0
   3  15  -9    3.62    3.50   0
  -3  15   9    5.95    3.19   0
  -3  15   9    2.81    3.37   0
  -3 -15   9    1.76    3.26   0
  -3 -15   9    4.56    3.30   0
  -2 -15   9   68.95    3.43   0
   2 -15  -9   52.69    2.65   0
   2  15  -9   56.24    2.73   0
  -2  15   9   57.25    8.01   0
  -2  15   9   50.78    2.58   0
  -2  15   9   53.13    7.50   0
  -2 -15   9   60.86    3.51   0
  -2 -15   9   57.23    2.65   0
   1 -15  -9   32.24    2.47   0
  -1 -15   9   30.81    2.51   0
   1  15  -9   30.15    3.51   0
  -1  15   9   26.86    2.41   0
  -1 -15   9   28.63    2.62   0
  -1 -15   9   34.97    3.35   0
   0 -15  -9    1.21    2.40   0
   0  15   9   -0.22    2.31   0
   0 -15   9    0.74    3.30   0
   0  15  -9    3.62    2.35   0
   0 -15   9   -0.60    3.24   0
   0 -15   9    0.65    2.34   0
 -14   0  10  128.30    3.21   0
 -14   0  10  133.16    3.46   0
 -13   0  10  558.66    4.64   0
 -13   0  10  619.04    5.85   0
  13   0 -10  569.43    5.44   0
  12   0 -10   99.50    2.79   0
 -12   0  10  108.94    3.70   0
 -12   0  10  118.39    3.75   0
 -11   0  10   74.94    2.65   0
  11   0 -10   68.14    2.51   0
  10   0 -10    1.77    2.76   0
 -10   0  10    1.78    2.09   0
   9   0 -10   71.58    3.01   0
  -9   0  10   79.27    3.25   0
  -8   0  10   34.12    2.10   0
   8   0 -10   35.71    2.85   0
  -7   0  10 2943.81    9.51   0
  -7   0  10 3439.96   10.30   0
   7   0 -10 3061.33    9.51   0
  -6   0  10  260.22    4.01   0
  -6   0  10  279.98    3.92   0
   6   0 -10  251.19    3.23   0
  -5   0  10 2077.91    8.37   0
   5   0 -10 2157.90    8.11   0
  -5   0  10 2361.14    8.68   0
  -4   0  10 3977.09   12.02   0
   4   0 -10 4103.22   11.13   0
  -4   0  10 4454.76   11.86   0
  -3   0  10 1513.98    7.82   0
   3   0 -10 1483.79    7.03   0
  -3   0  10 1536.12    7.13   0
  -2   0  10  994.73    5.88   0
  -2   0  10 1003.45    6.38   0
   2   0 -10  965.38    5.80   0
   1   0 -10  400.75    4.27   0
  -1   0  10  414.31    4.09   0
   1   0 -10  408.96    4.14   0
  -1   0  10  436.16    4.41   0
   0   0  10  753.89    5.55   0
   0   0 -10  755.62    6.01   0
   0   0 -10  750.47    5.53   0
   0   0  10  785.23    5.69   0
  -1   0 -10   16.67    3.03   0
   1   0  10   19.28    2.75   0
  -1   0 -10   15.33    2.02   0
   1   0  10   17.81    2.86   0
   2   0  10   64.80    3.21   0
  -2   0 -10   66.63    2.53   0
   2   0  10   64.64    2.41   0
  -2   0 -10   67.57    3.26   0
  -3   0 -10   16.30    2.92   0
   3   0  10   15.88    2.90   0
  -3   0 -10   17.33    3.11   0
   3   0  10   15.06    3.06   0
  -4   0 -10    5.53    3.00   0
  -4   0 -10    8.28    3.03   0
   4   0  10    7.04    2.98   0
   4   0  10    5.01    3.02   0
  -5   0 -10    1.31    3.02   0
  -5   0 -10    2.18    3.10   0
   5   0  10    0.56    3.10   0
   5   0  10    0.40    3.02   0
  -6   0 -10   24.58    3.45   0
   6   0  10   17.70    4.87   0
   6   0  10   20.70    3.25   0
  -7   0 -10  295.91    4.88   0
   7   0  10  259.85    4.75   0
 -14   1  10    1.13    3.52   0
 -14  -1  10    3.89    2.35   0
 -13   1  10   22.78    2.57   0
 -13  -1  10   20.01    2.55   0
  13  -1 -10   24.49    3.33   0
 -13   1  10   21.21    2.59   0
 -13  -1  10   23.01    2.60   0
  13   1 -10   22.49    3.26   0
 -12   1  10   24.05    2.49   0
 -12  -1  10   23.18    3.41   0
 -12   1  10   24.45    2.47   0
 -12  -1  10   21.53    2.45   0
  12  -1 -10   19.84    2.32   0
  12   1 -10   20.76    2.26   0
 -11   1  10   22.11    2.33   0
  11   1 -10   19.56    3.00   0
  11  -1 -10   17.83    2.21   0
 -11   1  10   18.63    3.24   0
 -11  -1  10   26.06    3.13   0
 -10   1  10    1.37    2.09   0
 -10  -1  10    3.45    2.99   0
  10   1 -10   -0.26    2.03   0
  10  -1 -10    0.39    1.99   0
   9   1 -10    3.72    2.02   0
  -9   1  10    5.46    2.87   0
  -9  -1  10    5.14    2.87   0
   9  -1 -10    4.13    1.99   0
   8   1 -10  114.86    2.61   0
  -8  -1  10  126.54    3.40   0
  -8   1  10  126.09    2.75   0
   8  -1 -10  118.17    2.56   0
  -8  -1  10  130.70    3.31   0
   7   1 -10    0.74    1.80   0
  -7  -1  10    2.19    2.04   0
  -7   1  10    1.09    2.79   0
   7  -1 -10   -1.21    1.98   0
  -7  -1  10    1.67    2.70   0
  -6  -1  10  714.15    5.38   0
  -6   1  10  764.95    5.46   0
  -6  -1  10  777.37    5.43   0
   6  -1 -10  731.63    4.92   0
   6   1 -10  703.52    4.78   0
  -6   1  10  719.75    5.64   0
   5  -1 -10    3.15    1.80   0
  -5   1  10    3.22    2.03   0
  -5  -1  10    3.08    2.01   0
  -5   1  10    2.43    1.84   0
  -5  -1  10    4.35    2.57   0
   5   1 -10    0.92    2.53   0
   4  -1 -10   30.78    2.73   0
  -4   1  10   26.74    3.04   0
  -4  -1  10   29.46    2.25   0
  -4   1  10   29.70    2.17   0
  -4  -1  10   29.29    2.10   0
   4   1 -10   30.03    2.68   0
   3  -1 -10  288.35    3.99   0
  -3   1  10  287.35    3.98   0
  -3   1  10  263.46    3.69   0
  -3  -1  10  285.65    4.27   0
  -3  -1  10  291.39    3.99   0
   3   1 -10  273.34    3.89   0
   2  -1 -10   22.12    2.02   0
   2   1 -10   20.90    2.12   0
  -2   1  10   20.16    2.06   0
  -2   1  10   20.96    2.93   0
  -2  -1  10   21.98    2.21   0
  -2  -1  10   24.79    2.77   0
   2   1 -10   23.16    2.70   0
   1   1 -10  139.17    3.49   0
   1  -1 -10  136.94    2.81   0
  -1   1  10  136.52    2.79   0
  -1   1  10  146.29    3.65   0
  -1  -1  10  148.14    3.33   0
  -1  -1  10  146.29    3.59   0
   1   1 -10  134.95    3.36   0
   0   1  10  124.93    3.36   0
   0  -1 -10  125.91    2.81   0
   0  -1 -10  133.45    3.60   0
   0  -1  10  127.80    2.84   0
   0   1  10  133.71    3.53   0
   0  -1  10  129.43    2.83   0
   0   1 -10  124.32    2.81   0
   0   1 -10  130.56    3.39   0
  -1   1 -10  397.93    4.75   0
   1   1  10  392.70    4.67   0
  -1  -1 -10  409.41    4.80   0
  -1  -1 -10  407.32    5.01   0
  -1   1 -10  388.48    4.16   0
   1  -1  10  395.19    4.76   0
   1   1  10  398.60    4.78   0
   1  -1  10  408.38    4.72   0
   2   1  10   40.86    3.01   0
  -2   1 -10   38.21    3.02   0
   2  -1  10   38.79    3.03   0
  -2  -1 -10   41.39    3.14   0
  -2   1 -10   43.18    3.11   0
  -2  -1 -10   42.10    3.03   0
   2  -1  10   39.35    2.23   0
   2   1  10   38.02    3.03   0
   3  -1  10   31.17    3.04   0
  -3  -1 -10   36.73    3.25   0
  -3   1 -10   40.65    3.13   0
  -3   1 -10   32.73    2.34   0
  -3  -1 -10   34.23    3.24   0
   3  -1  10   36.61    3.02   0
   3   1  10   32.92    3.00   0
   3   1  10   32.74    3.14   0
  -4   1 -10  268.07    4.97   0
  -4  -1 -10  270.17    3.93   0
  -4   1 -10  289.03    4.39   0
   4   1  10  257.35    4.85   0
   4  -1  10  262.40    3.59   0
   4   1  10  260.59    4.31   0
  -4  -1 -10  280.37    4.95   0
   4  -1  10  261.84    4.91   0
  -5  -1 -10   56.76    3.70   0
  -5  -1 -10   65.37    3.55   0
  -5   1 -10   61.85    2.59   0
   5   1  10   55.85    3.70   0
   5  -1  10   55.26    3.70   0
   5  -1  10   52.85    2.48   0
   5   1  10   56.82    3.41   0
   6   1  10  197.48    6.05   0
  -6  -1 -10  219.94    3.79   0
  -6   1 -10  223.75    3.66   0
   6  -1  10  197.21    7.78   0
  -6  -1 -10  207.51    6.06   0
   6  -1  10  213.15    4.22   0
   6   1  10  211.44    4.39   0
   7   1  10    9.12    3.28   0
  -7  -1 -10    8.48    3.50   0
  -7   1 -10    8.01    2.46   0
   7  -1  10    8.75    3.30   0
 -13   2  10  210.45    3.46   0
 -13  -2  10  207.50    3.44   0
 -13   2  10  232.99    4.51   0
 -13  -2  10  224.67    4.52   0
  13  -2 -10  196.91    4.14   0
 -12   2  10  101.20    3.59   0
 -12   2  10  101.72    3.73   0
  12  -2 -10   91.47    2.75   0
 -12  -2  10  103.29    2.92   0
  12   2 -10   89.72    2.77   0
 -11   2  10  102.42    3.45   0
 -11   2  10  112.29    3.65   0
 -11  -2  10  100.30    2.74   0
  11   2 -10   96.30    3.32   0
  11  -2 -10   92.81    2.66   0
 -10   2  10  234.63    3.98   0
 -10   2  10  234.16    4.02   0
  10   2 -10  222.98    3.81   0
 -10  -2  10  236.70    3.37   0
  10  -2 -10  221.16    3.25   0
  -9  -2  10  266.85    3.36   0
  -9   2  10  280.49    3.46   0
   9  -2 -10  290.56    3.96   0
  -9  -2  10  295.94    3.57   0
   9   2 -10  282.53    3.84   0
  -8  -2  10   45.31    3.00   0
  -8   2  10   45.92    2.27   0
   8  -2 -10   41.42    2.92   0
   8   2 -10   42.10    2.23   0
  -8  -2  10   47.47    2.29   0
   7  -2 -10  195.00    3.59   0
  -7  -2  10  187.40    3.65   0
  -7   2  10  196.56    3.07   0
   7   2 -10  182.28    2.94   0
  -7  -2  10  194.91    2.92   0
   6  -2 -10  426.88    3.89   0
   6   2 -10  420.67    3.82   0
  -6   2  10  432.40    4.00   0
  -6  -2  10  420.59    3.93   0
  -6  -2  10  467.21    4.44   0
   5  -2 -10  897.90    5.39   0
   5   2 -10  884.07    5.24   0
  -5   2  10  853.88    5.74   0
  -5   2  10  938.30    5.82   0
  -5  -2  10  868.91    5.46   0
  -5  -2  10  984.74    5.90   0
   4   2 -10  680.04    4.77   0
   4  -2 -10  745.35    5.33   0
  -4   2  10  744.68    5.33   0
  -4   2  10  703.70    5.77   0
  -4  -2  10  687.17    5.05   0
  -4  -2  10  749.73    5.01   0
   3  -2 -10 1380.26    7.08   0
   3   2 -10 1359.51    6.93   0
  -3   2  10 1310.77    6.56   0
  -3   2  10 1350.07    7.64   0
  -3  -2  10 1347.76    6.88   0
  -3  -2  10 1431.99    7.14   0
   2  -2 -10  683.47    5.35   0
  -2   2  10  671.98    5.99   0
   2   2 -10  652.02    5.23   0
  -2   2  10  661.26    5.25   0
   2   2 -10  622.16    4.84   0
  -2  -2  10  705.41    5.56   0
  -2  -2  10  662.06    4.87   0
   1  -2 -10  344.68    4.25   0
  -1   2  10  326.59    4.18   0
   1   2 -10  328.81    4.16   0
   1   2 -10  317.05    3.72   0
  -1   2  10  331.88    4.19   0
  -1  -2  10  351.07    4.42   0
  -1  -2  10  334.93    3.73   0
   0  -2 -10   28.60    2.08   0
   0   2  10   27.75    2.73   0
   0   2 -10   25.61    2.10   0
   0  -2 -10   25.59    2.23   0
   0   2 -10   29.91    2.91   0
   0   2  10   28.48    2.86   0
   0  -2  10   27.77    2.77   0
   0  -2  10   27.80    2.92   0
   1   2  10  514.61    4.65   0
  -1  -2 -10  573.70    5.33   0
  -1  -2 -10  540.75    5.22   0
  -1   2 -10  585.97    5.15   0
   1  -2  10  576.14    5.42   0
  -1   2 -10  554.19    5.36   0
   1   2  10  581.70    5.69   0
   1  -2  10  567.40    5.08   0
  -2  -2 -10  665.64    5.95   0
   2  -2  10  662.75    6.08   0
  -2  -2 -10  664.23    6.23   0
  -2   2 -10  641.54    4.96   0
   2  -2  10  615.68    4.82   0
   2   2  10  624.86    5.45   0
  -2   2 -10  638.85    6.02   0
   2   2  10  609.81    5.64   0
   3  -2  10   19.39    3.03   0
  -3  -2 -10   19.25    3.12   0
  -3   2 -10   25.49    3.06   0
  -3  -2 -10   20.16    3.16   0
  -3   2 -10   20.46    2.97   0
   3  -2  10   20.61    2.93   0
   3   2  10   20.75    3.03   0
   3   2  10   19.59    3.05   0
   4  -2  10   34.37    3.93   0
  -4  -2 -10   36.91    3.30   0
  -4   2 -10   35.96    3.29   0
  -4  -2 -10   36.66    3.42   0
   4   2  10   30.69    3.30   0
   4  -2  10   34.04    3.11   0
   4   2  10   33.02    3.18   0
  -4   2 -10   34.32    3.31   0
  -5  -2 -10    4.30    3.20   0
  -5   2 -10    8.92    3.18   0
   5   2  10    5.05    3.84   0
  -5  -2 -10    5.35    3.17   0
   5  -2  10    5.55    2.17   0
   5  -2  10    5.97    3.88   0
   5   2  10    4.87    3.11   0
   6   2  10   30.33    3.62   0
   6  -2  10   35.39    6.13   0
  -6  -2 -10   36.94    4.39   0
  -6  -2 -10   37.79    2.74   0
  -6   2 -10   41.54    2.60   0
   6  -2  10   32.89    5.83   0
   6  -2  10   35.10    2.52   0
   6   2  10   35.83    2.72   0
   7   2  10  148.14    4.45   0
   7   2  10  136.11    8.21   0
  -7  -2 -10  164.79    4.54   0
  -7   2 -10  150.59    3.39   0
   7  -2  10  145.58    3.30   0
 -13   3  10    2.62    3.34   0
 -13   3  10    7.90    3.34   0
 -13  -3  10    4.24    2.42   0
  13  -3 -10    4.69    2.30   0
 -13  -3  10    6.01    3.39   0
 -12   3  10   -1.67    2.27   0
 -12   3  10   -2.21    3.20   0
 -12  -3  10    2.77    3.15   0
  12  -3 -10    0.06    2.18   0
 -11   3  10   26.98    3.16   0
 -11   3  10   25.27    3.19   0
 -11  -3  10   23.46    2.34   0
  11   3 -10   23.31    3.06   0
  11  -3 -10   24.40    2.30   0
 -11  -3  10   27.49    2.35   0
 -10   3  10    2.64    3.09   0
  10   3 -10    1.08    2.82   0
 -10   3  10    4.02    3.08   0
 -10  -3  10    2.65    3.02   0
  10  -3 -10    2.19    2.02   0
 -10  -3  10    2.77    2.02   0
  -9   3  10   10.57    2.22   0
  -9   3  10   13.11    2.17   0
  -9  -3  10    9.70    2.08   0
   9  -3 -10   12.01    2.05   0
   9   3 -10   13.68    1.97   0
  -9  -3  10   12.66    2.02   0
   8   3 -10   50.95    2.94   0
  -8   3  10   48.44    2.96   0
   8  -3 -10   52.15    2.33   0
  -8  -3  10   44.63    2.27   0
  -8  -3  10   52.97    3.06   0
   7  -3 -10   15.71    2.00   0
  -7   3  10   14.61    2.06   0
  -7  -3  10   20.41    2.85   0
   7   3 -10   15.61    2.63   0
  -7  -3  10   16.80    2.91   0
   6  -3 -10    2.66    2.57   0
  -6   3  10    3.54    1.87   0
  -6  -3  10    3.54    1.96   0
   6   3 -10    3.73    1.76   0
  -6  -3  10    2.68    1.84   0
   5  -3 -10   81.23    2.98   0
  -5   3  10   80.08    2.97   0
  -5   3  10   74.71    2.52   0
  -5  -3  10   75.30    3.08   0
   5   3 -10   71.36    2.25   0
  -5  -3  10   84.34    2.34   0
  -4   3  10   14.38    1.88   0
  -4   3  10   12.90    2.87   0
  -4  -3  10   18.61    1.96   0
   4   3 -10   16.44    2.57   0
   4  -3 -10   17.72    2.54   0
  -4  -3  10   17.21    2.63   0
  -3   3  10  102.62    3.16   0
   3   3 -10   98.26    2.67   0
  -3   3  10  102.65    2.86   0
  -3  -3  10  104.93    2.69   0
   3   3 -10   99.03    2.51   0
   3  -3 -10  108.77    3.13   0
  -3  -3  10  112.33    3.21   0
  -2   3  10   17.37    1.95   0
   2   3 -10   18.52    2.11   0
  -2  -3  10   19.02    2.12   0
   2   3 -10   18.30    2.72   0
  -2   3  10   19.29    2.96   0
  -2  -3  10   21.21    2.00   0
   2  -3 -10   21.53    2.70   0
  -1   3  10  204.17    3.11   0
   1   3 -10  215.86    3.88   0
  -1   3  10  225.62    4.24   0
  -1  -3  10  221.11    3.27   0
   1   3 -10  211.09    3.68   0
  -1  -3  10  225.30    3.72   0
   1  -3 -10  215.24    3.70   0
   0   3  10  146.08    2.93   0
   0   3 -10  150.25    3.43   0
   0   3  10  156.25    3.84   0
   0  -3  10  151.88    3.44   0
   0  -3  10  160.96    3.58   0
   0  -3 -10  165.06    3.67   0
   0   3 -10  151.15    3.51   0
  -1   3 -10  103.81    2.74   0
  -1  -3 -10  114.54    3.82   0
  -1   3 -10  116.13    3.41   0
   1  -3  10  111.93    2.79   0
   1   3  10  112.01    3.72   0
   1  -3  10  112.49    2.62   0
  -1  -3 -10  119.02    3.48   0
   1   3  10  105.62    3.36   0
  -2  -3 -10    9.96    2.81   0
  -2   3 -10    9.47    2.83   0
  -2  -3 -10   10.27    3.02   0
  -2   3 -10   12.62    3.00   0
   2  -3  10    8.56    2.97   0
   2  -3  10    6.21    2.83   0
   2   3  10    7.83    2.94   0
   2   3  10    7.71    2.07   0
  -3  -3 -10    1.31    2.03   0
  -3  -3 -10    3.04    3.00   0
   3  -3  10    1.22    3.00   0
  -3   3 -10    2.66    2.95   0
   3  -3  10    1.11    1.98   0
   3   3  10    2.09    2.85   0
   3   3  10    1.31    2.83   0
   4  -3  10   38.24    3.39   0
  -4  -3 -10   42.64    3.41   0
  -4  -3 -10   38.61    2.58   0
  -4   3 -10   47.29    3.27   0
   4   3  10   38.56    3.27   0
   4  -3  10   34.73    2.30   0
   4   3  10   39.35    3.34   0
  -5  -3 -10   32.02    3.54   0
  -5  -3 -10   31.85    3.43   0
  -5   3 -10   35.68    3.34   0
   5   3  10   29.87    3.34   0
   5  -3  10   31.88    2.38   0
   5   3  10   31.94    3.39   0
   5  -3  10   31.00    4.17   0
   6   3  10  180.75    4.46   0
   6  -3  10  170.82    9.00   0
   6   3  10  167.25    4.78   0
  -6  -3 -10  191.50    4.53   0
  -6   3 -10  190.91    3.46   0
   6  -3  10  164.56    9.22   0
  -6  -3 -10  188.06    5.07   0
   6  -3  10  173.82    3.30   0
   7   3  10   72.21    3.90   0
   7   3  10   64.02    5.21   0
  -7  -3 -10   76.76    3.97   0
  -7   3 -10   76.71    2.98   0
  -7  -3 -10   67.35    5.08   0
   7  -3  10   77.93    3.70   0
 -13   4  10    9.16    2.38   0
 -13   4  10    9.09    2.54   0
  13  -4 -10    8.83    3.33   0
 -13  -4  10    8.06    3.40   0
 -13  -4  10    4.96    3.36   0
 -13  -4  10    7.62    2.40   0
 -12   4  10  128.09    3.87   0
 -12   4  10  119.46    3.79   0
 -12  -4  10  121.12    3.75   0
 -12  -4  10  119.98    2.95   0
  12  -4 -10  118.25    3.68   0
 -11   4  10    3.78    3.13   0
 -11   4  10   -0.01    2.16   0
 -11  -4  10   -0.81    2.29   0
  11  -4 -10    0.66    2.10   0
 -11  -4  10    3.84    3.05   0
 -10   4  10  286.52    3.62   0
 -10   4  10  286.52    4.21   0
 -10  -4  10  266.54    3.48   0
  10  -4 -10  272.35    3.52   0
  10   4 -10  261.01    3.41   0
 -10  -4  10  296.80    3.63   0
   9   4 -10  624.92    4.87   0
  -9  -4  10  638.98    4.58   0
  -9   4  10  654.19    5.31   0
  -9   4  10  594.82    4.72   0
   9  -4 -10  597.86    4.62   0
  -9  -4  10  579.37    4.49   0
  -8  -4  10   77.18    3.18   0
   8  -4 -10   73.22    2.35   0
  -8   4  10   70.96    2.37   0
   8   4 -10   70.71    3.04   0
  -8  -4  10   74.48    3.22   0
   7  -4 -10  172.42    2.89   0
  -7  -4  10  188.45    3.50   0
  -7   4  10  161.81    2.92   0
  -7  -4  10  167.34    2.97   0
   7   4 -10  171.87    3.47   0
  -6  -4  10   15.58    1.97   0
  -6   4  10   15.31    2.05   0
   6   4 -10   14.40    1.87   0
  -6  -4  10   16.32    2.87   0
   6  -4 -10   17.11    2.65   0
  -5  -4  10   28.13    2.70   0
  -5   4  10   27.61    1.96   0
   5   4 -10   25.99    2.59   0
  -5  -4  10   26.98    2.85   0
   5  -4 -10   26.64    1.91   0
  -4  -4  10  319.33    3.45   0
  -4   4  10  296.16    3.38   0
   4   4 -10  304.71    3.40   0
  -4   4  10  299.29    3.94   0
  -4  -4  10  328.89    4.14   0
   4  -4 -10  313.66    3.91   0
  -3  -4  10  382.95    3.80   0
  -3   4  10  348.26    3.65   0
   3   4 -10  359.32    3.71   0
  -3   4  10  360.82    4.80   0
  -3  -4  10  409.03    4.36   0
   3   4 -10  349.84    3.73   0
   3  -4 -10  371.42    3.75   0
  -2  -4  10  116.90    2.65   0
  -2   4  10  107.73    2.56   0
   2   4 -10  114.39    3.21   0
  -2   4  10  118.60    3.65   0
   2   4 -10  114.67    2.70   0
  -2  -4  10  123.04    2.73   0
   2  -4 -10  112.51    2.64   0
  -1   4  10  264.29    3.33   0
   1   4 -10  295.22    4.14   0
  -1   4  10  308.79    4.83   0
  -1  -4  10  295.22    3.56   0
   1   4 -10  295.42    3.99   0
   1  -4 -10  304.22    4.02   0
  -1  -4  10  308.54    4.05   0
   0   4 -10   30.86    2.89   0
   0   4 -10   28.49    2.98   0
   0   4  10   26.56    3.02   0
   0  -4  10   26.74    2.08   0
   0  -4 -10   30.23    2.08   0
   0  -4  10   31.57    2.84   0
   0   4  10   27.12    2.05   0
  -1   4 -10  281.11    4.20   0
  -1   4 -10  297.39    4.22   0
   1   4  10  285.61    4.77   0
   1  -4  10  292.70    3.54   0
   1  -4  10  304.70    4.37   0
  -1  -4 -10  301.67    4.23   0
   1   4  10  278.12    4.15   0
  -2  -4 -10  625.62    6.73   0
  -2   4 -10  678.99    5.32   0
   2  -4  10  636.38    5.88   0
   2  -4  10  599.57    4.53   0
   2   4  10  610.81    6.45   0
   2   4  10  589.93    5.51   0
  -2  -4 -10  621.58    5.22   0
   3  -4  10  292.52    4.89   0
  -3   4 -10  313.00    4.30   0
   3   4  10  258.27    4.36   0
   3  -4  10  281.92    4.11   0
   3   4  10  278.49    4.97   0
  -3  -4 -10  289.58    4.53   0
  -3  -4 -10  287.60    5.12   0
  -4  -4 -10   87.49    3.62   0
   4  -4  10   80.53    3.75   0
  -4  -4 -10   82.04    3.80   0
  -4   4 -10   88.54    2.69   0
   4   4  10   72.49    2.76   0
   4  -4  10   82.17    3.27   0
   4   4  10   81.94    3.78   0
   5  -4  10   10.15    4.02   0
  -5  -4 -10   11.74    3.27   0
   5  -4  10   10.54    3.49   0
  -5   4 -10   12.88    2.34   0
   5   4  10   10.66    3.20   0
  -5  -4 -10   12.33    3.34   0
   5  -4  10   14.02    3.06   0
   5   4  10   10.59    3.31   0
   6   4  10    1.67    3.35   0
  -6  -4 -10    1.79    3.36   0
  -6  -4 -10    2.53    3.45   0
   6  -4  10    1.60    5.72   0
  -6   4 -10    2.65    3.28   0
   6  -4  10    1.38    5.73   0
   6   4  10    1.66    4.06   0
   6  -4  10   -0.72    2.14   0
   7   4  10    7.28    3.47   0
   7   4  10    6.99    4.44   0
  -7  -4 -10    6.43    3.59   0
  -7   4 -10   10.53    3.49   0
  -7  -4 -10    8.08    4.43   0
   7  -4  10    8.71    3.34   0
 -13   5  10    2.52    3.49   0
 -13  -5  10    2.39    2.36   0
 -13  -5  10    1.20    3.36   0
  13  -5 -10    3.67    3.31   0
 -13   5  10    2.54    3.51   0
 -12   5  10   55.71    3.46   0
 -12  -5  10   47.49    2.66   0
  12  -5 -10   48.75    2.59   0
 -12  -5  10   56.77    3.44   0
 -12   5  10   47.92    2.65   0
 -11  -5  10   65.16    2.51   0
 -11   5  10   58.64    3.46   0
 -11   5  10   59.99    3.50   0
 -11  -5  10   59.98    2.54   0
  11  -5 -10   61.41    3.38   0
 -10   5  10  171.70    3.10   0
 -10   5  10  182.01    3.19   0
 -10  -5  10  202.81    3.84   0
  10  -5 -10  182.23    3.06   0
 -10  -5  10  175.19    3.03   0
  -9   5  10  228.47    3.38   0
  -9   5  10  245.29    3.42   0
   9  -5 -10  242.03    3.74   0
  -9  -5  10  249.87    3.86   0
  -9  -5  10  232.23    3.98   0
   8  -5 -10  433.74    3.96   0
  -8   5  10  418.81    3.93   0
  -8   5  10  474.01    4.77   0
  -8  -5  10  456.43    4.09   0
  -8  -5  10  428.80    3.99   0
   8   5 -10  430.84    3.92   0
  -7   5  10    1.07    1.97   0
  -7   5  10    1.78    1.99   0
  -7  -5  10    1.48    2.00   0
  -7  -5  10    1.77    2.91   0
   7   5 -10    0.57    2.69   0
   7  -5 -10    2.61    1.94   0
  -6   5  10   63.12    2.31   0
  -6  -5  10   67.70    2.28   0
  -6  -5  10   60.39    2.45   0
   6   5 -10   65.96    2.26   0
   6  -5 -10   66.82    2.95   0
  -5   5  10  364.16    3.70   0
  -5  -5  10  403.28    4.18   0
  -5  -5  10  397.54    3.94   0
   5   5 -10  370.47    4.08   0
   5  -5 -10  379.29    3.72   0
  -4   5  10   34.56    2.04   0
  -4  -5  10   37.01    2.08   0
   4   5 -10   34.47    2.04   0
  -4  -5  10   36.57    2.99   0
  -4   5  10   33.38    2.98   0
   4  -5 -10   36.17    2.72   0
  -3   5  10   59.45    2.24   0
  -3  -5  10   67.46    2.98   0
   3   5 -10   62.12    2.35   0
  -3   5  10   63.40    3.30   0
  -3  -5  10   68.63    3.05   0
   3   5 -10   61.57    2.95   0
   3  -5 -10   60.04    2.22   0
  -2  -5  10   73.45    2.40   0
   2   5 -10   72.54    3.14   0
  -2   5  10   69.39    2.71   0
  -2  -5  10   75.02    3.05   0
   2   5 -10   63.01    2.29   0
   2  -5 -10   68.01    2.37   0
  -2   5  10   65.03    2.27   0
  -1  -5  10  203.16    3.19   0
   1   5 -10  204.49    3.22   0
  -1   5  10  214.48    4.45   0
  -1  -5  10  208.31    3.17   0
   1  -5 -10  210.37    3.59   0
   1   5 -10  206.56    3.67   0
  -1   5  10  188.58    2.98   0
   0  -5  10  120.07    3.42   0
   0   5 -10  121.50    3.43   0
   0   5  10  109.09    3.79   0
   0  -5  10  120.20    3.34   0
   0  -5 -10  125.70    3.37   0
   0   5  10  106.36    3.31   0
  -1   5 -10  358.76    4.36   0
  -1  -5 -10  348.41    3.90   0
   1  -5  10  345.89    3.64   0
   1   5  10  355.35    5.88   0
   1   5  10  331.56    3.82   0
   1  -5  10  359.97    4.57   0
  -2   5 -10  465.46    4.62   0
  -2  -5 -10  462.13    5.11   0
   2  -5  10  465.60    4.51   0
   2   5  10  415.72    4.42   0
   2  -5  10  439.78    4.62   0
   2   5  10  437.37    6.07   0
  -3   5 -10   82.07    3.33   0
   3  -5  10   81.57    3.60   0
   3   5  10   70.13    3.41   0
   3  -5  10   76.30    3.18   0
  -3  -5 -10   75.47    3.50   0
   3   5  10   73.94    3.64   0
   4  -5  10   79.88    3.78   0
   4  -5  10   68.64    3.68   0
  -4  -5 -10   77.04    4.53   0
  -4   5 -10   81.29    3.48   0
   4   5  10   71.74    3.47   0
   4  -5  10   81.11    3.35   0
  -4  -5 -10   81.77    2.82   0
   4   5  10   80.25    4.49   0
   5   5  10    4.69    3.83   0
   5  -5  10    4.84    3.82   0
   5  -5  10    3.93    3.09   0
  -5  -5 -10    3.71    3.30   0
   5   5  10    5.40    3.21   0
  -5   5 -10    2.65    3.26   0
   5  -5  10    3.86    2.24   0
  -5  -5 -10    5.92    3.24   0
   6   5  10   61.03    4.63   0
  -6  -5 -10   61.25    4.57   0
  -6  -5 -10   60.11    3.97   0
   6   5  10   51.79    3.77   0
  -6   5 -10   63.05    2.75   0
   6  -5  10   55.47    6.47   0
   6  -5  10   52.49    6.46   0
   6  -5  10   66.70    3.46   0
 -13  -6  10   23.83    2.57   0
  13  -6 -10   31.81    3.48   0
 -13   6  10   21.63    2.76   0
 -13  -6  10   31.70    3.53   0
 -13   6  10   27.93    2.67   0
 -12   6  10   71.13    2.86   0
 -12  -6  10   77.12    3.60   0
  12  -6 -10   72.33    3.53   0
 -12  -6  10   72.31    2.76   0
 -12   6  10   72.91    3.78   0
 -11   6  10    9.30    3.38   0
 -11  -6  10    9.79    3.04   0
  11  -6 -10    8.09    2.27   0
 -11  -6  10    7.07    3.20   0
 -11   6  10    8.24    3.31   0
 -10   6  10   23.03    3.25   0
  10  -6 -10   21.63    3.09   0
 -10  -6  10   19.60    2.30   0
 -10  -6  10   21.81    3.14   0
 -10   6  10   22.36    3.17   0
   9  -6 -10  166.29    3.07   0
  -9   6  10  172.34    3.76   0
  -9   6  10  183.02    3.83   0
  -9  -6  10  174.17    2.95   0
  -9  -6  10  168.85    3.12   0
  -8   6  10  251.52    3.30   0
  -8   6  10  291.38    4.26   0
  -8  -6  10  283.35    3.99   0
  -8  -6  10  260.81    3.42   0
   8  -6 -10  277.57    3.84   0
  -7   6  10    8.63    2.09   0
  -7   6  10   10.09    2.97   0
  -7  -6  10   10.40    2.19   0
  -7  -6  10    9.93    2.73   0
   7  -6 -10   11.53    2.78   0
  -6   6  10    1.64    1.99   0
  -6   6  10    1.76    3.03   0
  -6  -6  10    0.63    2.64   0
  -6  -6  10    0.35    2.00   0
   6  -6 -10    1.35    1.95   0
  -5  -6  10    7.95    1.84   0
  -5  -6  10    7.71    2.12   0
   5  -6 -10    8.52    2.70   0
  -5   6  10    5.92    1.96   0
   4   6 -10  402.85    4.46   0
  -4   6  10  418.86    5.09   0
  -4  -6  10  403.11    3.83   0
  -4  -6  10  436.87    4.52   0
   4  -6 -10  409.52    3.77   0
  -4   6  10  375.63    3.75   0
   3   6 -10   69.44    3.09   0
  -3   6  10   70.47    3.38   0
  -3  -6  10   70.10    2.35   0
  -3  -6  10   77.74    2.39   0
   3  -6 -10   70.54    3.09   0
  -3   6  10   69.84    2.99   0
  -2  -6  10  568.32    4.47   0
   2   6 -10  550.76    4.39   0
  -2   6  10  584.31    6.54   0
  -2  -6  10  582.39    4.47   0
   2  -6 -10  589.48    4.96   0
  -2   6  10  532.74    4.35   0
  -1  -6  10  264.55    3.95   0
   1   6 -10  245.69    3.30   0
  -1   6  10  257.46    4.90   0
   1  -6 -10  253.67    3.31   0
  -1  -6  10  252.10    3.27   0
  -1   6  10  239.52    3.20   0
   0  -6  10  391.48    4.56   0
   0   6 -10  388.17    4.44   0
   0  -6 -10  395.27    4.46   0
   0   6  10  376.59    5.78   0
   0  -6  10  375.03    3.70   0
   0   6  10  363.58    4.39   0
   1  -6  10   10.98    2.88   0
  -1   6 -10   11.63    2.94   0
  -1  -6 -10   11.36    2.81   0
   1  -6  10   10.05    2.79   0
   1   6  10   10.70    3.60   0
   1   6  10   10.17    2.85   0
  -2   6 -10    2.11    2.17   0
  -2  -6 -10    2.18    2.97   0
   2   6  10    3.00    2.16   0
   2  -6  10    4.11    2.93   0
   2   6  10    2.72    3.65   0
   2  -6  10    3.44    2.16   0
   3  -6  10  210.12    4.36   0
  -3   6 -10  240.97    4.06   0
   3   6  10  210.38    4.12   0
  -3  -6 -10  218.75    3.54   0
   3  -6  10  213.37    3.19   0
   3  -6  10  226.70    4.40   0
   3   6  10  220.42    6.01   0
   4   6  10    2.98    4.00   0
   4  -6  10    2.18    3.18   0
   4   6  10    2.15    3.10   0
   4  -6  10    4.02    3.15   0
  -4  -6 -10    4.22    3.11   0
   4  -6  10    3.42    2.14   0
  -4   6 -10    4.35    2.22   0
   5   6  10    2.30    4.13   0
   5  -6  10    2.96    3.93   0
   5  -6  10    1.05    4.02   0
   5   6  10    2.62    2.22   0
  -5   6 -10    2.37    3.25   0
  -5  -6 -10    2.20    3.23   0
   5  -6  10    4.14    2.20   0
   6  -6  10   21.28    5.23   0
   6   6  10   23.81    3.42   0
  -6   6 -10   26.49    2.53   0
   6  -6  10   21.73    5.32   0
   6  -6  10   20.79    3.30   0
  -6  -6 -10   26.15    3.53   0
 -12  -7  10  119.63    3.90   0
  12  -7 -10  109.43    3.79   0
 -12  -7  10  116.94    3.89   0
 -12   7  10  110.33    4.03   0
 -12   7  10  107.93    2.96   0
 -11   7  10  528.04    5.06   0
  11  -7 -10  489.72    5.06   0
 -11  -7  10  517.52    5.05   0
 -11  -7  10  481.41    4.42   0
 -11   7  10  488.33    5.23   0
 -10   7  10  254.48    3.58   0
  10  -7 -10  249.84    4.11   0
 -10  -7  10  273.05    4.02   0
 -10  -7  10  241.39    3.52   0
 -10   7  10  237.20    3.49   0
  -9   7  10  764.56    5.64   0
  -9  -7  10  785.58    5.47   0
  -9  -7  10  743.31    5.57   0
   9  -7 -10  711.18    4.93   0
  -9   7  10  700.23    5.04   0
  -8   7  10  405.34    4.12   0
  -8  -7  10  397.00    3.96   0
  -8  -7  10  411.11    4.44   0
   8  -7 -10  410.97    4.36   0
  -8   7  10  400.03    4.44   0
  -7   7  10  202.89    4.02   0
  -7  -7  10  212.68    3.89   0
  -7  -7  10  202.91    3.53   0
   7  -7 -10  207.23    3.69   0
  -7   7  10  193.16    3.66   0
  -6   7  10  792.67    5.68   0
  -6  -7  10  816.43    5.69   0
  -6  -7  10  817.69    5.47   0
   6  -7 -10  773.38    4.94   0
  -6   7  10  764.33    5.45   0
  -5   7  10  660.50    5.90   0
  -5  -7  10  662.72    5.28   0
  -5  -7  10  642.03    4.51   0
   5  -7 -10  666.92    4.97   0
  -5   7  10  620.91    4.85   0
  -4   7  10  190.63    4.11   0
   4   7 -10  166.62    3.01   0
  -4  -7  10  194.93    3.61   0
  -4  -7  10  181.75    2.92   0
   4  -7 -10  196.61    3.53   0
  -4   7  10  185.88    3.52   0
   3   7 -10   90.89    3.20   0
  -3   7  10   86.98    3.66   0
   3  -7 -10   88.37    2.47   0
  -3  -7  10   92.38    3.20   0
  -3  -7  10   93.41    2.47   0
  -3   7  10   84.27    3.19   0
   2   7 -10   55.62    2.27   0
  -2   7  10   58.37    3.49   0
   2  -7 -10   61.89    2.35   0
  -2  -7  10   65.85    3.00   0
  -2  -7  10   65.04    3.02   0
  -2   7  10   61.80    3.00   0
   1   7 -10  352.93    4.19   0
  -1  -7  10  353.55    3.82   0
   1  -7 -10  364.92    4.22   0
  -1   7  10  354.41    5.71   0
  -1  -7  10  344.38    3.62   0
  -1   7  10  317.38    3.59   0
   0  -7  10  469.86    4.84   0
   0   7 -10  457.30    4.11   0
   0  -7 -10  475.31    4.70   0
   0   7  10  450.54    7.04   0
   0  -7  10  455.86    3.98   0
   0   7  10  449.67    4.56   0
   1  -7  10  323.26    4.45   0
  -1   7 -10  328.05    3.65   0
  -1  -7 -10  315.34    3.75   0
   1  -7  10  324.15    4.07   0
   1   7  10  296.87    4.24   0
   1   7  10  306.03    6.89   0
   2  -7  10  943.53    6.73   0
   2  -7  10  889.09    6.68   0
  -2  -7 -10  931.55    5.93   0
   2   7  10  850.44    6.20   0
   2  -7  10  937.73    5.89   0
  -2   7 -10  935.94    5.54   0
   2   7  10  931.14   13.83   0
   3  -7  10  237.95    4.50   0
  -3   7 -10  245.32    3.33   0
   3   7  10  218.36    3.46   0
  -3  -7 -10  251.88    4.32   0
   3  -7  10  239.95    3.22   0
   3  -7  10  247.48    4.55   0
   4  -7  10   66.74    3.83   0
  -4   7 -10   77.50    2.63   0
   4   7  10   64.96    3.56   0
  -4  -7 -10   82.45    3.60   0
   4  -7  10   73.78    3.80   0
   4  -7  10   70.33    2.53   0
   5  -7  10   93.60    4.22   0
   5   7  10   91.80    3.81   0
   5  -7  10   96.92    4.21   0
  -5   7 -10  110.07    3.78   0
  -5  -7 -10  102.50    3.94   0
   5  -7  10  100.75    3.65   0
   6  -7  10   97.12    6.19   0
   6   7  10   95.01    4.12   0
  -6   7 -10  112.47    3.10   0
   6  -7  10   99.43    5.59   0
  -6  -7 -10  117.53    4.25   0
   6  -7  10  111.14    3.73   0
 -12  -8  10   73.91    2.79   0
 -12  -8  10   78.60    3.81   0
  12  -8 -10   80.76    3.67   0
 -12  -8  10   78.21    2.95   0
 -12   8  10   78.11    3.11   0
 -12   8  10   80.61    3.01   0
  11  -8 -10  100.26    2.89   0
 -11  -8  10  105.39    2.83   0
 -11  -8  10  113.90    3.74   0
 -11   8  10  104.58    3.05   0
 -11   8  10  108.82    3.85   0
 -10  -8  10    4.65    2.13   0
 -10  -8  10    7.36    3.26   0
 -10   8  10    9.63    3.29   0
  10  -8 -10    7.36    2.28   0
 -10   8  10    7.86    3.33   0
  -9   8  10    2.26    3.36   0
  -9  -8  10    0.18    3.23   0
  -9  -8  10    6.95    2.14   0
   9  -8 -10    3.82    2.05   0
  -9   8  10    4.26    3.06   0
  -8   8  10    2.99    2.24   0
  -8  -8  10    4.14    3.20   0
  -8  -8  10    5.54    2.13   0
   8  -8 -10    3.81    2.89   0
  -8   8  10    2.09    2.10   0
  -7   8  10   71.36    2.55   0
  -7  -8  10   67.29    2.54   0
  -7  -8  10   67.08    2.44   0
   7  -8 -10   70.74    3.14   0
  -7   8  10   63.95    2.48   0
  -6   8  10  924.43    6.60   0
  -6  -8  10  930.83    5.56   0
   6  -8 -10  897.73    5.35   0
  -6  -8  10  891.95    5.14   0
  -6   8  10  867.75    5.35   0
  -5   8  10  811.23    6.41   0
  -5  -8  10  824.15    5.65   0
   5  -8 -10  765.52    4.90   0
  -5  -8  10  800.25    5.39   0
  -5   8  10  730.74    4.83   0
  -4   8  10   57.02    3.31   0
   4  -8 -10   54.36    2.18   0
  -4  -8  10   62.46    3.14   0
   4   8 -10   51.52    2.39   0
  -4  -8  10   50.06    3.09   0
  -4   8  10   67.05    2.40   0
  -3   8  10  341.78    5.15   0
   3   8 -10  323.87    4.13   0
   3  -8 -10  351.68    4.13   0
  -3  -8  10  341.18    4.03   0
  -3   8  10  326.00    5.16   0
  -3  -8  10  340.12    4.16   0
  -3   8  10  313.92    4.03   0
  -2   8  10  913.72    8.10   0
   2   8 -10  904.45    5.78   0
  -2   8  10  911.15    8.16   0
   2  -8 -10  962.35    5.87   0
  -2  -8  10  914.02    5.29   0
  -2  -8  10  935.15    5.87   0
  -2   8  10  879.79    5.71   0
  -1   8  10  272.10    5.97   0
   1   8 -10  258.01    3.36   0
   1  -8 -10  277.25    3.40   0
  -1   8  10  267.73    5.90   0
  -1  -8  10  265.04    3.49   0
  -1  -8  10  268.59    3.31   0
  -1   8  10  255.06    3.91   0
   0   8  10   37.40    4.35   0
   0   8 -10   38.75    3.12   0
   0  -8 -10   34.73    3.09   0
   0  -8  10   39.78    2.28   0
   0   8  10   37.80    4.23   0
   0  -8  10   43.49    2.92   0
   0   8  10   38.14    3.06   0
   1  -8  10    4.98    2.15   0
   1  -8  10    7.04    2.96   0
  -1  -8 -10    5.12    2.20   0
  -1   8 -10    8.42    2.16   0
   1   8  10    7.10    2.17   0
   1  -8  10    5.69    2.18   0
   2  -8  10   42.21    2.54   0
   2  -8  10   43.80    3.25   0
  -2  -8 -10   43.24    2.42   0
  -2   8 -10   48.18    2.51   0
   2   8  10   39.09    3.32   0
   2  -8  10   43.41    3.23   0
   3  -8  10    0.06    3.12   0
   3  -8  10   -0.20    3.15   0
  -3   8 -10    0.07    3.14   0
  -3  -8 -10   -2.61    3.20   0
   3   8  10    1.89    2.17   0
   3  -8  10   -0.88    3.04   0
  -4   8 -10   48.59    2.61   0
   4  -8  10   51.61    3.66   0
   4   8  10   43.25    3.44   0
  -4  -8 -10   54.51    3.51   0
   4  -8  10   50.47    3.36   0
   4  -8  10   49.37    3.61   0
   5   8  10   46.16    3.63   0
   5  -8  10   48.12    3.83   0
  -5   8 -10   55.19    3.68   0
  -5  -8 -10   52.06    2.83   0
   5  -8  10   51.44    3.92   0
   5  -8  10   54.16    3.52   0
  11  -9 -10  153.65    3.94   0
 -11  -9  10  143.51    3.02   0
 -11  -9  10  150.73    3.14   0
 -11  -9  10  163.06    4.11   0
 -11   9  10  144.58    3.31   0
 -11   9  10  146.14    3.30   0
 -10  -9  10   40.98    2.45   0
 -10  -9  10   44.66    3.38   0
 -10  -9  10   47.51    3.38   0
 -10   9  10   44.00    3.54   0
  10  -9 -10   40.68    3.29   0
 -10   9  10   44.52    2.58   0
  -9  -9  10  160.30    3.15   0
  -9  -9  10  157.81    3.66   0
   9  -9 -10  165.20    3.70   0
  -9   9  10  156.87    3.85   0
  -9   9  10  152.82    3.16   0
  -8  -9  10  398.35    4.14   0
  -8  -9  10  382.44    3.78   0
   8  -9 -10  373.07    3.84   0
  -8   9  10  372.93    3.93   0
  -8   9  10  403.14    4.85   0
  -7   9  10  394.54    4.29   0
  -7  -9  10  433.26    4.70   0
   7  -9 -10  402.90    4.37   0
  -7  -9  10  402.03    4.36   0
  -7   9  10  368.43    3.80   0
  -6   9  10  228.72    4.31   0
  -6  -9  10  238.08    4.03   0
   6  -9 -10  228.68    3.83   0
  -6   9  10  218.69    3.89   0
  -6  -9  10  237.44    3.79   0
  -5   9  10  398.61    5.06   0
   5  -9 -10  414.28    4.40   0
  -5  -9  10  428.20    4.59   0
  -5   9  10  377.30    3.76   0
  -5  -9  10  386.44    3.80   0
  -4   9  10   48.36    2.61   0
   4   9 -10   50.86    3.29   0
   4  -9 -10   52.29    2.96   0
  -4  -9  10   57.14    3.15   0
  -4   9  10   50.29    2.30   0
  -4  -9  10   51.39    2.36   0
  -3   9  10   84.77    3.73   0
  -3   9  10   87.89    3.87   0
   3   9 -10   76.61    2.59   0
   3  -9 -10   87.82    3.19   0
  -3  -9  10   88.86    2.48   0
  -3   9  10   79.92    3.19   0
  -3  -9  10   90.69    2.62   0
  -2   9  10   50.46    3.58   0
   2   9 -10   48.22    2.40   0
   2  -9 -10   47.76    2.41   0
  -2   9  10   47.93    3.58   0
  -2  -9  10   45.52    2.29   0
  -2   9  10   49.54    3.12   0
  -2  -9  10   48.19    2.38   0
  -1  -9  10   20.91    3.01   0
   1  -9 -10   24.96    3.10   0
   1   9 -10   20.52    3.03   0
  -1   9  10   23.13    3.98   0
  -1  -9  10   23.52    2.92   0
  -1  -9  10   20.61    2.26   0
  -1   9  10   23.00    2.14   0
  -1   9  10   23.69    3.97   0
   0  -9  10   34.72    2.34   0
   0  -9 -10   42.70    3.16   0
   0   9 -10   44.60    3.19   0
   0  -9  10   38.71    2.24   0
   0   9  10   35.13    2.31   0
   0  -9  10   39.53    3.03   0
   1  -9  10  262.14    4.33   0
  -1  -9 -10  285.14    4.20   0
  -1   9 -10  281.15    3.40   0
   1  -9  10  273.14    4.32   0
   1   9  10  248.88    4.06   0
   1  -9  10  287.74    3.95   0
   2  -9  10  155.50    3.93   0
   2  -9  10  148.56    3.19   0
  -2  -9 -10  161.69    3.82   0
  -2   9 -10  153.77    2.94   0
   2   9  10  144.46    3.69   0
   2  -9  10  152.26    3.53   0
   3  -9  10  344.56    4.99   0
   3  -9  10  329.42    5.03   0
  -3  -9 -10  379.63    4.82   0
  -3   9 -10  372.98    4.58   0
   3   9  10  298.13    3.89   0
   3  -9  10  357.61    4.38   0
   4  -9  10   86.87    3.84   0
   4   9  10   72.24    2.83   0
  -4  -9 -10   95.69    3.80   0
  -4   9 -10   96.36    3.78   0
   4  -9  10   88.51    3.42   0
   4  -9  10   91.21    3.87   0
   5   9  10  202.46    4.56   0
   5  -9  10  234.98    5.33   0
  -5   9 -10  241.31    3.69   0
  -5  -9 -10  250.90    4.13   0
   5  -9  10  247.88    5.36   0
   5  -9  10  240.92    3.50   0
 -11 -10  10   15.00    3.24   0
 -11 -10  10   19.78    2.64   0
 -11 -10  10   20.29    2.50   0
 -11  10  10   14.95    2.60   0
  11 -10 -10   18.30    2.47   0
 -11  10  10   21.49    2.58   0
 -10 -10  10   19.19    3.13   0
 -10 -10  10   13.80    2.47   0
 -10 -10  10   15.12    3.34   0
 -10  10  10   11.44    3.42   0
  10 -10 -10   14.48    2.42   0
 -10  10  10   17.00    3.39   0
  -9 -10  10  109.61    2.69   0
  -9 -10  10  124.83    3.83   0
  -9 -10  10  119.86    3.65   0
   9 -10 -10  121.43    3.55   0
  -9  10  10  113.85    3.62   0
  -9  10  10  114.19    3.06   0
  -8 -10  10    2.93    2.18   0
  -8 -10  10    1.74    3.12   0
   8 -10 -10   -0.10    2.08   0
  -8 -10  10   -0.02    2.23   0
  -8  10  10   -0.54    2.15   0
  -8  10  10    0.08    2.23   0
  -7 -10  10    0.10    1.93   0
  -7 -10  10    1.26    2.21   0
   7 -10 -10    4.41    2.13   0
  -7  10  10    1.57    2.20   0
  -7 -10  10    1.60    2.98   0
  -7  10  10    2.38    3.21   0
  -6 -10  10  435.54    4.49   0
   6 -10 -10  458.93    4.63   0
  -6 -10  10  464.49    4.25   0
  -6  10  10  440.86    4.67   0
  -6 -10  10  452.88    4.50   0
  -6  10  10  428.73    4.61   0
  -5 -10  10  401.33    4.36   0
   5 -10 -10  416.10    4.44   0
  -5 -10  10  414.41    3.93   0
  -5  10  10  372.49    3.81   0
  -5 -10  10  379.91    3.78   0
  -5  10  10  396.43    5.15   0
  -4 -10  10  102.69    2.59   0
   4  10 -10  102.76    2.76   0
   4 -10 -10  116.57    2.60   0
  -4 -10  10  109.60    2.72   0
  -4  10  10  103.43    2.60   0
  -4 -10  10  107.64    2.74   0
  -4  10  10  114.97    3.88   0
  -3 -10  10  332.82    3.67   0
   3  10 -10  360.45    4.38   0
   3 -10 -10  386.60    4.33   0
  -3  10  10  364.44    5.74   0
  -3 -10  10  371.83    3.80   0
  -3  10  10  347.58    4.24   0
  -3 -10  10  360.85    3.71   0
  -3  10  10  357.59    5.58   0
  -2 -10  10  208.66    3.19   0
   2 -10 -10  229.62    3.96   0
   2  10 -10  208.52    3.27   0
  -2  10  10  220.94    5.18   0
  -2 -10  10  232.43    3.78   0
  -2  10  10  218.08    3.86   0
  -2 -10  10  229.54    3.94   0
  -2  10  10  215.02    5.04   0
  -1 -10  10   23.40    2.19   0
   1 -10 -10   24.89    3.00   0
   1  10 -10   27.41    3.14   0
  -1  10  10   25.07    4.28   0
  -1  10  10   22.34    2.15   0
  -1 -10  10   27.95    3.04   0
  -1 -10  10   27.24    2.25   0
  -1  10  10   23.83    4.18   0
   0 -10  10    6.62    3.08   0
   0  10 -10    7.76    3.03   0
   0 -10 -10    4.13    2.97   0
   0  10  10    5.85    2.98   0
   0 -10  10    4.71    2.06   0
   0 -10  10    7.79    3.01   0
   1 -10  10   10.50    3.05   0
  -1  10 -10   12.00    3.14   0
   1  10  10   10.79    2.30   0
   1 -10  10   11.65    2.17   0
  -1 -10 -10   11.85    3.12   0
   1 -10  10    9.88    2.14   0
   2 -10  10    0.61    3.15   0
  -2 -10 -10   -1.45    3.07   0
   2 -10  10    1.79    2.21   0
  -2  10 -10    5.29    3.26   0
   2  10  10    4.55    3.15   0
   2 -10  10    3.59    2.22   0
   3 -10  10   15.06    3.25   0
   3 -10  10   12.13    3.34   0
  -3 -10 -10   17.98    3.29   0
   3  10  10   12.83    2.35   0
  -3  10 -10   16.50    2.46   0
   3 -10  10   14.40    3.32   0
   4 -10  10    5.51    3.42   0
   4 -10  10    4.76    2.46   0
   4  10  10    2.94    3.28   0
  -4 -10 -10    3.52    2.37   0
  -4  10 -10    1.58    2.51   0
   4 -10  10    2.38    2.21   0
 -10 -11  10   24.32    2.43   0
 -10 -11  10   27.79    2.60   0
 -10 -11  10   30.89    2.52   0
 -10  11  10   29.25    3.52   0
  10 -11 -10   28.91    2.51   0
 -10  11  10   23.50    2.61   0
  -9 -11  10    2.70    3.21   0
  -9 -11  10    5.99    3.38   0
   9 -11 -10    7.37    3.13   0
  -9  11  10    4.61    3.26   0
  -9 -11  10    4.80    2.21   0
  -9  11  10    3.44    2.47   0
  -8 -11  10   12.41    3.18   0
  -8 -11  10    8.48    3.22   0
   8 -11 -10    5.47    3.10   0
  -8  11  10    7.51    2.39   0
  -8 -11  10   11.32    3.22   0
  -8  11  10    7.44    2.41   0
  -7 -11  10  117.43    3.52   0
   7 -11 -10  121.96    3.56   0
  -7 -11  10  131.30    3.63   0
  -7  11  10  112.32    2.91   0
  -7 -11  10  116.65    2.77   0
  -7  11  10  120.45    3.86   0
  -6 -11  10  223.76    3.85   0
   6 -11 -10  232.25    3.25   0
  -6 -11  10  246.42    3.52   0
  -6  11  10  222.53    3.33   0
  -6  11  10  241.24    4.48   0
  -6 -11  10  224.71    3.19   0
  -5 -11  10  225.89    3.80   0
  -5 -11  10  220.66    3.74   0
   5 -11 -10  223.86    3.18   0
  -5 -11  10  237.92    3.27   0
  -5  11  10  209.24    3.17   0
  -5  11  10  210.58    3.75   0
  -4 -11  10   62.63    2.52   0
  -4 -11  10   53.05    2.47   0
   4  11 -10   62.14    3.48   0
   4 -11 -10   68.81    2.47   0
  -4 -11  10   66.23    2.52   0
  -4  11  10   60.59    2.48   0
  -4  11  10   65.36    3.65   0
  -3 -11  10  349.10    4.30   0
  -3 -11  10  329.13    4.19   0
  -3  11  10  337.54    6.19   0
   3 -11 -10  347.97    3.65   0
   3  11 -10  326.12    4.32   0
  -3 -11  10  377.44    4.31   0
  -3  11  10  319.20    3.54   0
  -3  11  10  332.61    5.50   0
  -2 -11  10  152.33    2.97   0
   2 -11 -10  161.68    3.01   0
   2  11 -10  153.21    3.08   0
  -2  11  10  165.88    5.51   0
  -2  11  10  142.80    2.97   0
  -2 -11  10  160.42    3.01   0
  -2  11  10  156.59    5.27   0
  -2 -11  10  157.74    3.02   0
  -1 -11  10    3.91    2.07   0
   1 -11 -10    4.60    2.16   0
   1  11 -10    2.25    2.28   0
  -1  11  10    7.31    3.06   0
  -1 -11  10    5.57    2.94   0
  -1 -11  10    3.59    2.08   0
   0 -11  10    1.91    3.05   0
   0 -11 -10    2.63    2.24   0
   0  11 -10   -1.31    2.22   0
   0  11  10    4.01    2.09   0
   0 -11  10    4.01    2.04   0
   0 -11  10    4.83    3.01   0
   1 -11  10   66.65    3.49   0
  -1 -11 -10   69.08    2.59   0
  -1  11 -10   65.31    3.45   0
   1  11  10   60.51    2.60   0
   1 -11  10   64.02    3.45   0
   1 -11  10   71.66    3.36   0
   2 -11  10   48.80    3.49   0
  -2 -11 -10   56.05    3.46   0
   2  11  10   44.32    3.28   0
   2 -11  10   49.79    3.50   0
  -2  11 -10   44.90    2.57   0
   2 -11  10   47.40    3.26   0
   3 -11  10   42.29    3.56   0
  -3 -11 -10   43.97    3.51   0
   3 -11  10   43.52    3.50   0
   3  11  10   38.97    3.52   0
  -3  11 -10   45.06    3.61   0
   3 -11  10   42.74    2.41   0
   4  11  10   16.80    2.55   0
   4 -11  10   20.46    3.57   0
  -4 -11 -10   22.57    3.50   0
   4 -11  10   19.51    3.49   0
  -4  11 -10   22.59    3.64   0
   4 -11  10   18.05    2.41   0
  -9 -12  10   63.66    3.54   0
  -9 -12  10   64.62    2.77   0
   9 -12 -10   65.60    2.73   0
  -9  12  10   68.44    3.62   0
  -9 -12  10   71.66    3.65   0
  -9  12  10   59.71    2.87   0
  -8 -12  10    7.10    2.24   0
  -8 -12  10    4.27    2.38   0
   8 -12 -10    9.93    3.19   0
  -8  12  10    6.20    3.28   0
  -8  12  10    8.81    3.48   0
  -8 -12  10    4.72    2.32   0
  -7 -12  10   25.35    3.15   0
  -7 -12  10   26.36    2.25   0
   7 -12 -10   32.11    2.39   0
  -7 -12  10   30.81    2.40   0
  -7  12  10   30.44    3.37   0
  -7  12  10   29.81    3.50   0
  -6 -12  10    9.88    3.12   0
  -6 -12  10    7.98    2.20   0
   6 -12 -10    9.08    3.22   0
  -6 -12  10   11.75    3.09   0
  -6  12  10    9.79    2.33   0
  -6  12  10    7.59    2.40   0
  -5 -12  10   15.29    2.33   0
  -5 -12  10   14.08    2.22   0
   5 -12 -10   14.78    3.13   0
  -5 -12  10   17.35    2.28   0
  -5  12  10   17.23    3.25   0
  -5  12  10   18.54    3.35   0
  -4 -12  10   85.30    2.64   0
  -4 -12  10   82.09    3.40   0
   4  12 -10   82.79    3.66   0
   4 -12 -10   85.93    2.59   0
  -4 -12  10   90.07    2.68   0
  -4  12  10   85.35    3.39   0
  -4  12  10   84.49    3.91   0
  -3 -12  10   -0.22    2.14   0
  -3 -12  10    0.54    2.96   0
   3 -12 -10    1.22    3.02   0
  -3  12  10    0.63    3.36   0
   3  12 -10    4.59    3.11   0
  -3  12  10    2.03    3.22   0
  -3 -12  10   -0.70    2.15   0
  -3  12  10    2.03    3.11   0
  -2 -12  10    5.80    3.12   0
  -2 -12  10    1.80    2.12   0
   2 -12 -10    5.14    3.09   0
   2  12 -10   -0.22    2.30   0
  -2  12  10    2.83    4.13   0
  -2  12  10    5.38    3.16   0
  -2 -12  10    8.40    3.08   0
  -2  12  10    2.84    3.90   0
  -1 -12  10    3.51    3.08   0
  -1 -12  10    2.28    3.00   0
   1 -12 -10    1.32    2.12   0
   1  12 -10   -0.90    2.36   0
  -1  12  10    3.69    3.07   0
  -1 -12  10    1.27    3.02   0
   0 -12  10   -0.44    2.26   0
   0 -12 -10    2.71    3.18   0
   0  12 -10   -0.46    3.25   0
   0  12  10   -1.26    2.17   0
   0 -12  10    3.51    2.12   0
   0 -12  10    0.39    2.18   0
  -1 -12 -10   22.31    2.34   0
   1 -12  10   15.54    3.31   0
  -1  12 -10   19.27    2.47   0
   1  12  10   18.41    2.44   0
   1 -12  10   20.62    3.18   0
   1 -12  10   17.82    2.51   0
   2 -12  10    8.24    2.44   0
  -2 -12 -10   10.07    3.30   0
   2  12  10   13.74    3.27   0
  -2  12 -10   13.64    3.46   0
   2 -12  10   14.13    3.39   0
   2 -12  10   12.46    2.28   0
  -3 -12 -10   37.91    3.54   0
   3  12  10   25.88    2.54   0
   3 -12  10   28.29    3.51   0
  -3  12 -10   35.53    2.68   0
   3 -12  10   35.68    3.54   0
   3 -12  10   35.81    2.46   0
  -8 -13  10  113.39    2.91   0
   8 -13 -10  136.13    3.79   0
  -8 -13  10  133.89    3.93   0
  -8  13  10  109.76    3.12   0
  -8  13  10  107.89    3.20   0
  -8 -13  10  118.42    2.96   0
  -7 -13  10  189.73    4.01   0
  -7 -13  10  199.38    3.92   0
   7 -13 -10  181.12    3.21   0
  -7 -13  10  205.57    4.13   0
  -7  13  10  171.92    3.22   0
  -7  13  10  189.77    4.39   0
  -6 -13  10  339.17    4.36   0
  -6 -13  10  328.07    4.37   0
   6 -13 -10  348.01    4.48   0
  -6 -13  10  349.65    3.97   0
  -6  13  10  331.09    4.45   0
  -6  13  10  339.68    5.10   0
  -5 -13  10   91.83    2.80   0
  -5 -13  10  106.01    3.42   0
   5 -13 -10  112.13    3.62   0
  -5  13  10   90.75    2.73   0
  -5 -13  10  106.38    3.63   0
  -5  13  10  100.75    4.02   0
  -4 -13  10   41.53    3.37   0
  -4 -13  10   37.15    2.40   0
   4 -13 -10   38.70    2.30   0
   4  13 -10   31.77    3.48   0
  -4  13  10   35.81    2.43   0
  -4 -13  10   36.31    2.45   0
  -4  13  10   38.79    3.57   0
  -3 -13  10    2.02    3.16   0
  -3 -13  10    2.40    2.21   0
   3 -13 -10   -0.20    3.07   0
  -3  13  10   11.34    3.45   0
   3  13 -10   -0.43    2.32   0
  -3  13  10    3.81    2.19   0
  -3 -13  10    1.48    2.24   0
  -3  13  10    0.19    3.24   0
  -2 -13  10    3.38    2.24   0
  -2 -13  10    0.42    3.12   0
   2 -13 -10    4.97    3.04   0
   2  13 -10   -0.80    3.37   0
  -2  13  10    1.64    4.80   0
  -2  13  10   -2.19    3.14   0
  -2  13  10    1.55    4.75   0
  -2 -13  10    4.10    2.24   0
  -1 -13  10   21.44    2.41   0
   1 -13 -10   20.28    2.31   0
  -1 -13  10   18.77    2.37   0
   1  13 -10   20.62    3.39   0
  -1  13  10   15.37    3.21   0
  -1 -13  10   25.41    2.29   0
   0 -13  10   67.28    3.55   0
   0 -13 -10   70.62    3.56   0
   0 -13  10   69.99    3.54   0
   0  13 -10   62.86    2.68   0
   0  13  10   58.25    2.64   0
   0 -13  10   65.74    2.62   0
  -1 -13 -10    5.60    2.35   0
   1 -13  10    5.90    3.33   0
  -1  13 -10    6.83    2.54   0
   1  13  10    7.33    2.36   0
   1 -13  10    7.22    2.20   0
   1 -13  10    8.72    3.35   0
  -2 -13 -10   66.10    3.63   0
   2 -13  10   65.75    3.63   0
   2  13  10   49.88    2.68   0
   2 -13  10   53.49    2.83   0
  -2  13 -10   70.30    3.81   0
   2 -13  10   60.48    2.69   0
  -7 -14  10   36.65    2.55   0
  -7 -14  10   38.04    3.48   0
   7 -14 -10   39.47    2.71   0
  -7  14  10   34.54    3.69   0
  -7 -14  10   40.26    2.70   0
  -7  14  10   40.75    3.78   0
  -6 -14  10   80.85    2.78   0
  -6 -14  10   89.14    3.65   0
   6 -14 -10   92.98    3.65   0
  -6  14  10   78.48    3.58   0
  -6 -14  10   86.94    2.90   0
  -6  14  10   81.71    3.19   0
  -5 -14  10   93.51    2.90   0
  -5 -14  10   99.38    2.84   0
   5 -14 -10  112.94    3.74   0
  -5  14  10   87.79    2.90   0
  -5 -14  10  110.92    3.75   0
  -5  14  10   97.86    4.18   0
  -4 -14  10  101.82    2.83   0
  -4 -14  10  111.50    3.63   0
   4 -14 -10  109.60    2.87   0
   4  14 -10   89.37    3.01   0
  -4  14  10   95.74    2.86   0
  -4 -14  10  104.72    2.91   0
  -4  14  10  103.49    4.26   0
  -3 -14  10    2.51    2.26   0
   3 -14 -10    2.72    2.35   0
  -3 -14  10    4.33    3.20   0
  -3  14  10    1.68    3.44   0
   3  14 -10    3.32    3.33   0
  -3  14  10    2.45    2.36   0
  -3 -14  10    2.74    3.14   0
  -3  14  10    1.31    3.29   0
  -2 -14  10   41.37    3.46   0
   2 -14 -10   41.41    2.60   0
  -2 -14  10   38.78    3.41   0
   2  14 -10   35.75    2.60   0
  -2  14  10   33.79    2.59   0
  -2 -14  10   39.80    3.33   0
  -1 -14  10    5.99    2.42   0
   1 -14 -10    8.13    2.48   0
  -1 -14  10    8.49    3.35   0
   1  14 -10    8.91    3.54   0
  -1  14  10    7.04    3.33   0
  -1 -14  10    8.43    2.33   0
   0 -14  10   20.55    3.36   0
   0 -14 -10   15.11    2.47   0
   0 -14  10   12.99    2.41   0
   0  14 -10   15.29    2.58   0
   0  14  10   13.65    2.60   0
   0 -14  10   14.71    2.39   0
  -4 -15  10    2.61    2.47   0
   4 -15 -10    5.55    3.37   0
   4  15 -10    3.87    3.58   0
  -4 -15  10    4.60    3.31   0
  -4  15  10    4.07    2.41   0
  -4 -15  10    4.44    2.42   0
  -4  15  10    4.45    3.65   0
   3 -15 -10   28.91    2.53   0
  -3 -15  10   24.62    2.58   0
  -3 -15  10   31.94    3.45   0
   3  15 -10   26.88    2.64   0
  -3  15  10   28.62    4.72   0
  -3  15  10   30.18    3.45   0
  -3  15  10   29.47    4.57   0
  -3 -15  10   26.13    3.34   0
   2 -15 -10   98.84    3.75   0
  -2 -15  10  100.61    3.85   0
  -2 -15  10   96.63    2.93   0
   2  15 -10   85.61    2.93   0
  -2  15  10   83.90    2.87   0
  -2 -15  10   91.76    2.85   0
 -13   1  11   25.96    3.50   0
 -13  -1  11   26.19    3.47   0
 -13   1  11   20.26    3.53   0
 -13  -1  11   19.79    2.57   0
  13   1 -11   19.57    3.31   0
  13  -1 -11   18.60    2.41   0
 -12   1  11   27.58    3.39   0
  12  -1 -11   23.71    2.39   0
  12   1 -11   28.33    3.15   0
 -12  -1  11   30.58    3.37   0
 -12   1  11   27.84    2.43   0
  11  -1 -11    4.74    2.13   0
 -11   1  11    4.18    2.22   0
 -11  -1  11    3.81    3.11   0
  11   1 -11    4.18    2.10   0
  10  -1 -11  207.97    3.17   0
 -10   1  11  217.07    3.31   0
  10   1 -11  200.14    3.13   0
 -10  -1  11  230.41    3.96   0
  -9  -1  11   49.35    3.08   0
   9   1 -11   44.56    2.19   0
  -9   1  11   42.95    2.27   0
  -9  -1  11   49.56    2.32   0
   9  -1 -11   45.11    2.91   0
   8   1 -11  578.25    4.47   0
  -8  -1  11  578.68    4.93   0
  -8   1  11  611.66    4.62   0
  -8  -1  11  606.66    4.62   0
   8  -1 -11  578.52    4.44   0
   7   1 -11  295.63    3.39   0
  -7   1  11  300.05    4.15   0
  -7  -1  11  274.67    3.40   0
  -7   1  11  313.75    4.07   0
   7  -1 -11  286.04    3.35   0
  -7  -1  11  317.18    4.03   0
  -6   1  11  633.34    4.90   0
  -6  -1  11  652.97    4.76   0
  -6   1  11  683.73    4.69   0
   6  -1 -11  667.77    4.62   0
  -6  -1  11  727.83    5.19   0
   6   1 -11  665.39    4.58   0
  -5   1  11 1109.29    6.57   0
   5  -1 -11 1105.52    5.77   0
  -5  -1  11 1095.92    6.13   0
  -5   1  11 1174.04    6.32   0
  -5  -1  11 1154.95    5.91   0
   5   1 -11 1091.90    5.79   0
   4  -1 -11  760.71    5.01   0
  -4   1  11  737.81    5.32   0
  -4   1  11  808.05    5.46   0
  -4  -1  11  750.94    5.19   0
  -4  -1  11  815.36    5.56   0
   4   1 -11  760.83    5.00   0
   3  -1 -11 1715.32    7.68   0
  -3   1  11 1641.70    7.13   0
  -3   1  11 1736.09    8.29   0
  -3  -1  11 1689.56    7.59   0
  -3  -1  11 1698.65    7.21   0
   3   1 -11 1629.42    7.11   0
   2   1 -11  618.77    4.85   0
  -2   1  11  647.98    5.20   0
   2  -1 -11  639.53    5.13   0
  -2   1  11  679.36    5.90   0
  -2  -1  11  680.62    5.49   0
  -2  -1  11  665.78    5.22   0
   2   1 -11  617.04    4.71   0
  -1   1  11  132.97    3.38   0
   1   1 -11  125.64    3.53   0
   1  -1 -11  134.60    3.38   0
  -1  -1  11  134.22    2.82   0
  -1   1  11  142.12    3.72   0
  -1  -1  11  131.78    2.95   0
   1   1 -11  129.73    3.37   0
   0   1  11    4.35    2.74   0
   0  -1 -11    3.56    2.06   0
   0   1 -11    1.26    2.91   0
   0  -1 -11    2.32    2.72   0
   0  -1  11    1.40    2.80   0
   0   1  11    3.45    2.78   0
   0  -1  11    2.83    2.02   0
   0   1 -11    0.60    1.95   0
   1   1  11   17.25    2.09   0
  -1   1 -11   17.52    2.91   0
   1  -1  11   20.83    2.90   0
  -1  -1 -11   18.52    2.23   0
  -1   1 -11   19.56    2.98   0
  -1  -1 -11   20.19    2.92   0
   1   1  11   17.00    2.15   0
   1  -1  11   16.77    2.14   0
   2   1  11  185.94    3.94   0
   2  -1  11  173.72    3.35   0
  -2  -1 -11  192.09    4.04   0
  -2   1 -11  199.10    4.01   0
  -2  -1 -11  193.78    4.08   0
   2  -1  11  182.63    3.18   0
  -2   1 -11  193.58    4.10   0
   2   1  11  182.64    3.95   0
   3  -1  11  125.20    3.14   0
  -3  -1 -11  142.04    3.91   0
  -3   1 -11  144.62    3.81   0
  -3   1 -11  135.66    3.93   0
   3  -1  11  144.74    3.71   0
   3   1  11  136.11    3.76   0
  -3  -1 -11  142.25    3.94   0
   3   1  11  130.84    3.83   0
  -4  -1 -11   61.27    3.71   0
  -4  -1 -11   65.99    3.51   0
  -4   1 -11   73.21    3.59   0
  -4   1 -11   64.32    3.71   0
   4   1  11   61.19    3.74   0
   4  -1  11   66.58    3.47   0
   4   1  11   68.54    3.53   0
   4  -1  11   60.64    3.66   0
  -5  -1 -11  197.91    4.33   0
  -5   1 -11  203.16    4.30   0
  -5  -1 -11  185.86    4.90   0
   5   1  11  172.15    4.75   0
   5  -1  11  168.01    4.80   0
   5  -1  11  183.87    4.07   0
   5   1  11  171.19    3.46   0
  -6  -1 -11  418.12    7.90   0
  -6  -1 -11  427.08    5.67   0
  -6   1 -11  468.25    5.50   0
   6   1  11  390.46    7.72   0
   6  -1  11  389.32    9.29   0
   6  -1  11  439.06    5.23   0
   6   1  11  391.85    4.79   0
 -13   2  11    8.89    2.48   0
 -13  -2  11   10.44    3.50   0
 -13   2  11    6.33    3.50   0
  13   2 -11    4.51    2.31   0
 -13  -2  11    7.12    2.46   0
  13  -2 -11    7.39    3.30   0
 -12   2  11   68.81    2.68   0
  12  -2 -11   63.76    2.57   0
 -12   2  11   72.61    3.52   0
  12   2 -11   69.14    3.34   0
 -12  -2  11   75.64    3.56   0
 -11   2  11   57.67    2.55   0
 -11   2  11   58.25    3.38   0
 -11  -2  11   55.08    2.44   0
  11   2 -11   50.15    2.46   0
 -11  -2  11   59.24    3.31   0
  11  -2 -11   55.07    3.28   0
  10   2 -11  236.25    3.19   0
 -10   2  11  256.75    4.04   0
 -10  -2  11  232.28    3.37   0
 -10  -2  11  273.61    4.09   0
  10  -2 -11  239.16    3.30   0
  -9  -2  11   45.71    3.09   0
  -9   2  11   49.58    3.16   0
   9  -2 -11   44.03    3.02   0
  -9  -2  11   43.86    2.37   0
   9   2 -11   41.34    2.96   0
  -8   2  11   39.37    2.28   0
  -8  -2  11   38.55    2.96   0
   8  -2 -11   41.21    2.24   0
   8   2 -11   41.18    2.93   0
  -8  -2  11   40.22    2.31   0
  -7   2  11  143.65    2.89   0
  -7   2  11  159.50    3.49   0
  -7  -2  11  140.96    2.74   0
   7  -2 -11  156.86    3.46   0
   7   2 -11  154.43    3.36   0
  -7  -2  11  163.60    2.82   0
   6   2 -11  361.32    3.58   0
   6  -2 -11  375.77    4.16   0
  -6   2  11  362.93    4.41   0
  -6   2  11  379.88    4.24   0
  -6  -2  11  368.71    4.27   0
  -6  -2  11  386.30    3.71   0
   5   2 -11   66.62    2.35   0
   5  -2 -11   72.83    3.05   0
  -5   2  11   71.86    3.07   0
  -5  -2  11   70.32    2.49   0
  -5  -2  11   72.38    2.42   0
  -5   2  11   70.68    2.46   0
   4   2 -11  219.87    3.14   0
   4  -2 -11  247.58    3.73   0
  -4   2  11  241.19    3.70   0
  -4   2  11  233.19    4.07   0
  -4  -2  11  230.85    3.35   0
  -4  -2  11  242.70    3.26   0
   3   2 -11   29.57    2.10   0
   3  -2 -11   30.23    2.89   0
  -3   2  11   31.81    2.89   0
  -3   2  11   31.26    3.11   0
  -3  -2  11   35.21    3.01   0
  -3  -2  11   36.25    2.91   0
   2  -2 -11   46.90    2.86   0
   2   2 -11   42.59    2.85   0
  -2   2  11   45.63    2.82   0
   2   2 -11   43.83    2.31   0
  -2   2  11   47.78    2.49   0
  -2  -2  11   49.63    3.04   0
  -2  -2  11   48.27    2.91   0
   1  -2 -11  184.37    3.63   0
  -1   2  11  175.15    3.54   0
   1   2 -11  178.27    3.56   0
   1   2 -11  182.51    3.66   0
  -1   2  11  196.76    3.93   0
  -1  -2  11  193.97    3.70   0
  -1  -2  11  179.32    3.10   0
   0   2  11   19.14    2.74   0
   0  -2 -11   20.02    2.85   0
   0   2 -11   19.66    2.07   0
   0   2 -11   19.45    2.20   0
   0  -2  11   19.40    2.93   0
   0   2  11   22.46    3.02   0
   0  -2  11   17.81    2.24   0
   1   2  11   15.21    2.12   0
  -1  -2 -11   17.80    2.96   0
  -1  -2 -11   16.51    3.08   0
  -1   2 -11   19.66    3.02   0
   1  -2  11   20.33    2.16   0
  -1   2 -11   17.28    2.87   0
   1   2  11   18.46    2.98   0
   1  -2  11   19.87    2.91   0
  -2   2 -11  128.87    3.06   0
   2  -2  11  136.95    3.79   0
  -2  -2 -11  137.77    3.77   0
  -2  -2 -11  138.29    3.85   0
  -2   2 -11  143.60    3.72   0
   2  -2  11  135.24    2.89   0
   2   2  11  127.62    3.07   0
   2   2  11  126.14    3.61   0
   3  -2  11    2.65    2.98   0
  -3  -2 -11    2.37    3.11   0
  -3   2 -11   -2.22    3.02   0
  -3  -2 -11   -0.05    2.17   0
   3  -2  11    1.05    2.19   0
   3   2  11    1.36    3.04   0
   3   2  11   -0.27    3.02   0
  -3   2 -11    2.10    2.99   0
   4  -2  11  413.85    5.81   0
  -4  -2 -11  420.78    4.81   0
  -4   2 -11  446.17    4.41   0
  -4  -2 -11  438.88    5.84   0
   4   2  11  416.33    5.55   0
   4  -2  11  431.95    4.82   0
   4   2  11  422.89    5.29   0
  -5  -2 -11  199.60    4.94   0
  -5  -2 -11  198.29    3.90   0
  -5   2 -11  217.66    4.33   0
   5   2  11  184.92    5.31   0
   5  -2  11  188.20    5.01   0
   5  -2  11  195.70    3.44   0
   5   2  11  197.25    4.51   0
  -6  -2 -11   12.50    2.60   0
   6  -2  11   10.82    5.18   0
   6   2  11   10.36    4.21   0
  -6   2 -11   13.68    3.47   0
   6  -2  11   10.50    5.57   0
  -6  -2 -11   10.92    4.21   0
   6  -2  11   10.67    2.48   0
   6   2  11    7.20    2.53   0
 -13   3  11    9.33    2.42   0
 -13   3  11    7.50    2.53   0
 -13  -3  11    8.66    2.42   0
  13  -3 -11    9.14    3.25   0
 -13  -3  11    6.02    3.37   0
 -13  -3  11    9.37    3.49   0
 -12   3  11    0.33    3.36   0
 -12   3  11    2.29    3.22   0
 -12  -3  11    4.95    3.15   0
  12   3 -11    1.07    2.16   0
 -12  -3  11    2.08    3.18   0
  12  -3 -11    0.08    3.08   0
 -11   3  11   22.98    2.45   0
 -11   3  11   20.72    3.19   0
 -11  -3  11   20.37    2.22   0
  11   3 -11   19.72    2.11   0
 -11  -3  11   22.35    3.18   0
  11  -3 -11   20.53    3.09   0
 -10   3  11   55.29    3.46   0
 -10   3  11   49.84    2.48   0
 -10  -3  11   49.29    2.41   0
  10  -3 -11   49.21    2.37   0
 -10  -3  11   49.92    3.13   0
  10   3 -11   49.63    3.09   0
  -9  -3  11   33.59    3.16   0
  -9   3  11   36.63    2.33   0
   9   3 -11   31.64    2.21   0
   9  -3 -11   36.89    2.87   0
  -9  -3  11   38.15    2.30   0
   8   3 -11    2.43    1.85   0
  -8   3  11    0.36    2.91   0
   8  -3 -11    2.95    1.94   0
  -8  -3  11    2.09    2.85   0
  -8  -3  11    0.75    1.93   0
   7  -3 -11   68.32    3.05   0
  -7   3  11   64.45    2.42   0
  -7  -3  11   61.87    2.41   0
   7   3 -11   64.26    2.26   0
  -7  -3  11   70.81    2.31   0
   6  -3 -11   55.82    2.16   0
  -6   3  11   64.82    2.93   0
  -6   3  11   54.73    2.41   0
  -6  -3  11   62.07    3.06   0
   6   3 -11   58.26    2.24   0
  -6  -3  11   57.24    2.23   0
   5  -3 -11  328.98    4.01   0
  -5   3  11  309.29    3.45   0
  -5   3  11  319.63    4.43   0
  -5  -3  11  316.37    4.31   0
   5   3 -11  303.32    3.41   0
  -5  -3  11  323.49    3.50   0
   4  -3 -11 1203.24    6.13   0
  -4   3  11 1233.05    6.48   0
  -4   3  11 1192.03    7.22   0
  -4  -3  11 1276.87    6.82   0
   4   3 -11 1172.83    6.42   0
  -4  -3  11 1303.70    6.70   0
  -3   3  11  411.15    4.91   0
   3  -3 -11  411.72    3.93   0
  -3   3  11  399.26    4.43   0
   3   3 -11  390.54    4.05   0
  -3  -3  11  447.79    4.74   0
   3   3 -11  407.97    4.33   0
  -3  -3  11  416.38    3.92   0
   2  -3 -11  272.78    3.92   0
  -2   3  11  239.43    3.80   0
   2   3 -11  260.89    3.91   0
  -2   3  11  265.77    4.31   0
  -2  -3  11  277.90    4.04   0
   2   3 -11  242.94    3.26   0
  -2  -3  11  270.46    3.86   0
   1  -3 -11  282.69    4.01   0
  -1   3  11  261.61    3.95   0
   1   3 -11  276.75    4.00   0
  -1   3  11  289.59    4.55   0
  -1  -3  11  281.58    3.49   0
  -1  -3  11  287.05    3.54   0
   1   3 -11  264.03    3.48   0
   0   3  11  162.49    3.53   0
   0  -3 -11  164.66    3.63   0
   0   3 -11  161.51    3.65   0
   0   3  11  172.81    3.95   0
   0  -3  11  166.20    3.05   0
   0  -3  11  172.28    3.70   0
   0   3 -11  157.04    3.00   0
  -1  -3 -11   91.76    3.36   0
  -1   3 -11   93.32    3.35   0
  -1   3 -11   91.37    3.33   0
   1  -3  11   86.98    3.34   0
   1   3  11   81.40    2.75   0
   1  -3  11   89.10    2.63   0
   1   3  11   82.78    2.61   0
  -2  -3 -11  245.12    4.25   0
  -2  -3 -11  228.60    4.53   0
  -2   3 -11  226.84    4.20   0
   2  -3  11  228.11    3.67   0
  -2   3 -11  232.31    3.43   0
   2  -3  11  233.71    3.34   0
   2   3  11  233.59    4.35   0
   2   3  11  228.18    4.18   0
  -3  -3 -11   65.43    3.43   0
   3  -3  11   59.34    3.48   0
  -3  -3 -11   61.75    3.54   0
  -3   3 -11   65.53    2.62   0
   3  -3  11   61.27    2.48   0
   3   3  11   57.24    3.41   0
   3   3  11   61.37    3.52   0
   4  -3  11    4.69    3.10   0
  -4  -3 -11    5.46    3.12   0
  -4  -3 -11    7.25    3.20   0
  -4   3 -11    8.08    3.22   0
   4   3  11    5.99    3.10   0
   4  -3  11    4.80    2.20   0
   4   3  11    4.56    3.07   0
  -5  -3 -11   46.45    3.61   0
  -5   3 -11   48.65    3.40   0
   5   3  11   39.45    3.69   0
  -5  -3 -11   41.42    3.75   0
   5  -3  11   43.30    3.33   0
   5  -3  11   39.35    4.45   0
   5   3  11   46.38    3.57   0
   6   3  11    0.74    2.40   0
  -6  -3 -11   -0.17    3.56   0
   6  -3  11    1.08    6.13   0
  -6  -3 -11    1.62    3.43   0
   6   3  11    1.69    4.25   0
  -6   3 -11   -0.67    2.45   0
   6  -3  11    1.38    5.53   0
   6  -3  11    2.22    2.39   0
 -13   4  11   84.99    3.83   0
  13  -4 -11   75.25    3.62   0
 -13   4  11   80.77    3.85   0
 -13  -4  11   77.85    3.93   0
 -13  -4  11   82.16    3.00   0
 -12   4  11   11.36    3.37   0
 -12   4  11   12.63    2.32   0
 -12  -4  11   13.08    3.32   0
  12  -4 -11    8.67    2.23   0
 -12  -4  11   11.36    2.35   0
 -11   4  11   21.41    2.51   0
 -11   4  11   18.72    2.43   0
 -11  -4  11   17.94    2.38   0
  11  -4 -11   18.27    2.36   0
 -11  -4  11   22.00    2.28   0
 -10   4  11   10.17    3.26   0
 -10   4  11    8.17    3.09   0
 -10  -4  11    9.15    2.31   0
  10  -4 -11    8.93    3.00   0
  10   4 -11    8.41    2.93   0
 -10  -4  11   10.28    2.20   0
  -9   4  11   77.41    2.61   0
  -9   4  11   78.79    3.32   0
   9   4 -11   70.12    2.34   0
   9  -4 -11   73.32    2.43   0
  -9  -4  11   72.16    3.24   0
  -9  -4  11   80.37    3.20   0
   8  -4 -11   19.62    2.12   0
  -8   4  11   16.86    2.08   0
  -8  -4  11   18.80    2.88   0
   8   4 -11   19.70    2.03   0
  -8  -4  11   17.72    2.14   0
  -7  -4  11  298.14    3.41   0
   7  -4 -11  295.30    3.94   0
  -7   4  11  279.70    3.44   0
  -7  -4  11  278.47    3.99   0
   7   4 -11  275.99    3.79   0
   6  -4 -11    5.91    1.80   0
  -6  -4  11    5.71    1.97   0
  -6   4  11   10.20    1.91   0
   6   4 -11    5.98    2.63   0
  -6  -4  11    5.11    2.75   0
  -5  -4  11  246.08    3.14   0
  -5   4  11  228.47    3.13   0
   5   4 -11  216.33    3.03   0
  -5   4  11  228.77    3.99   0
  -5  -4  11  243.03    3.90   0
   5  -4 -11  240.39    3.68   0
  -4  -4  11   70.48    3.16   0
  -4   4  11   64.07    2.98   0
   4   4 -11   62.87    2.92   0
  -4   4  11   63.89    2.48   0
  -4  -4  11   65.29    2.56   0
   4  -4 -11   58.66    2.26   0
   3   4 -11   40.96    2.32   0
  -3   4  11   35.89    2.12   0
   3   4 -11   41.48    2.90   0
  -3   4  11   42.29    3.23   0
  -3  -4  11   42.61    2.24   0
   3  -4 -11   41.21    2.18   0
  -3  -4  11   42.25    2.84   0
  -2   4  11   44.22    2.94   0
   2   4 -11   46.11    3.08   0
   2   4 -11   46.82    2.97   0
  -2   4  11   45.72    2.50   0
  -2  -4  11   51.40    3.11   0
   2  -4 -11   50.16    2.95   0
  -2  -4  11   44.67    2.26   0
  -1   4  11   16.31    2.87   0
   1   4 -11   15.84    3.01   0
  -1   4  11   17.06    3.11   0
  -1  -4  11   13.56    2.14   0
   1   4 -11   16.16    2.80   0
  -1  -4  11   18.36    2.81   0
   1  -4 -11   16.76    2.76   0
   0   4 -11    9.77    2.02   0
   0   4 -11   10.65    2.16   0
   0   4  11   11.00    2.93   0
   0  -4  11   14.36    2.97   0
   0  -4  11    8.50    2.86   0
   0  -4 -11   11.88    2.82   0
   0   4  11    9.58    2.84   0
  -1   4 -11  178.39    3.78   0
   1  -4  11  185.33    3.90   0
   1  -4  11  179.05    3.03   0
   1   4  11  176.28    4.17   0
   1   4  11  173.62    3.69   0
  -1  -4 -11  193.53    3.81   0
  -1   4 -11  179.81    3.06   0
  -2   4 -11   58.58    3.33   0
   2  -4  11   59.89    3.30   0
   2  -4  11   60.40    3.27   0
   2   4  11   55.35    3.40   0
   2   4  11   57.55    3.31   0
  -2  -4 -11   62.34    3.26   0
  -3  -4 -11   35.50    3.25   0
  -3  -4 -11   35.63    3.40   0
   3  -4  11   36.31    3.39   0
  -3   4 -11   37.93    2.49   0
   3   4  11   34.53    3.26   0
   3  -4  11   34.36    2.31   0
   3   4  11   34.07    3.35   0
  -4  -4 -11   14.42    3.24   0
   4  -4  11   11.52    3.34   0
  -4  -4 -11   14.27    3.46   0
  -4   4 -11   13.41    3.24   0
   4   4  11   13.31    3.23   0
   4  -4  11   14.54    2.25   0
   4   4  11   12.17    3.26   0
   5  -4  11   17.95    4.16   0
   5  -4  11   16.58    3.57   0
  -5  -4 -11   20.44    3.38   0
  -5  -4 -11   18.82    3.49   0
  -5   4 -11   17.11    3.43   0
   5   4  11   18.46    3.40   0
   5  -4  11   21.33    3.12   0
   5   4  11   17.12    3.63   0
   6   4  11   94.47    4.28   0
  -6  -4 -11   96.73    4.39   0
   6   4  11   87.06    4.30   0
   6  -4  11   94.76    8.35   0
  -6   4 -11  109.84    3.93   0
  -6  -4 -11   95.94    5.30   0
   6  -4  11   88.74    7.85   0
   6  -4  11   99.24    3.81   0
 -13   5  11    3.71    3.46   0
 -13   5  11   -0.04    2.51   0
 -13  -5  11    2.61    2.39   0
 -13  -5  11    1.13    3.40   0
  13  -5 -11    1.28    2.34   0
 -12   5  11    9.39    3.34   0
 -12   5  11    9.97    2.38   0
 -12  -5  11    8.67    3.36   0
  12  -5 -11    6.06    3.21   0
 -12  -5  11    8.22    2.32   0
 -11   5  11   10.52    3.20   0
 -11   5  11   12.75    2.34   0
 -11  -5  11   10.38    2.21   0
  11  -5 -11    9.63    3.15   0
 -11  -5  11   10.75    3.00   0
 -10  -5  11    3.62    3.13   0
 -10   5  11    0.98    2.27   0
 -10   5  11    1.59    2.28   0
  10  -5 -11    2.64    2.07   0
 -10  -5  11   -0.35    2.24   0
  -9  -5  11   12.27    2.16   0
  -9   5  11    9.34    2.17   0
  -9   5  11    9.24    3.14   0
   9  -5 -11    9.05    2.90   0
  -9  -5  11   12.35    3.10   0
   9   5 -11    7.55    2.16   0
   8  -5 -11   53.35    3.07   0
  -8   5  11   53.21    3.12   0
  -8  -5  11   57.93    3.04   0
  -8   5  11   52.88    2.58   0
  -8  -5  11   54.16    2.41   0
   8   5 -11   54.81    2.95   0
  -7   5  11    9.40    2.86   0
  -7  -5  11    6.81    2.72   0
  -7  -5  11    5.91    2.86   0
   7   5 -11    9.47    1.96   0
   7  -5 -11    8.08    2.06   0
  -6   5  11   31.15    2.04   0
  -6  -5  11   36.14    2.14   0
   6   5 -11   31.83    2.07   0
  -6  -5  11   32.39    2.98   0
   6  -5 -11   35.72    2.86   0
  -5   5  11  499.14    4.04   0
  -5  -5  11  546.25    4.25   0
   5   5 -11  519.92    4.61   0
  -5   5  11  491.82    4.68   0
  -5  -5  11  565.56    4.94   0
   5  -5 -11  528.57    4.60   0
  -4   5  11  248.70    3.22   0
  -4  -5  11  287.80    3.99   0
   4   5 -11  266.87    3.81   0
  -4   5  11  251.76    3.74   0
  -4  -5  11  277.69    3.39   0
   4  -5 -11  269.90    3.34   0
  -3   5  11    9.09    2.06   0
  -3  -5  11    6.45    2.70   0
   3   5 -11    7.47    1.89   0
   3   5 -11    8.34    2.12   0
  -3  -5  11    8.12    2.89   0
  -3   5  11    9.48    3.00   0
   3  -5 -11    8.00    2.01   0
  -2  -5  11  527.04    4.36   0
   2   5 -11  479.49    4.20   0
  -2   5  11  517.99    5.78   0
  -2  -5  11  554.91    4.93   0
   2   5 -11  509.98    4.82   0
   2  -5 -11  544.32    4.81   0
  -2   5  11  487.23    4.59   0
   1   5 -11  140.83    2.86   0
   1   5 -11  141.58    2.91   0
  -1   5  11  157.54    4.04   0
  -1  -5  11  152.12    3.55   0
   1  -5 -11  150.45    3.46   0
  -1   5  11  136.95    2.71   0
  -1  -5  11  143.64    2.85   0
   0   5 -11   69.89    2.51   0
   0   5  11   68.85    3.46   0
   0  -5  11   69.61    2.42   0
   0  -5 -11   69.36    3.11   0
   0  -5  11   71.45    2.52   0
   0   5  11   63.98    3.09   0
  -1   5 -11   16.91    2.22   0
   1  -5  11   14.07    2.09   0
   1   5  11   15.34    3.12   0
   1  -5  11   14.28    2.25   0
  -1  -5 -11   14.59    2.95   0
   1   5  11   14.04    2.22   0
  -2   5 -11   30.30    2.39   0
   2  -5  11   33.72    3.20   0
   2  -5  11   31.74    2.30   0
   2   5  11   31.56    2.36   0
   2   5  11   31.39    4.04   0
  -2  -5 -11   40.25    2.40   0
  -3   5 -11   78.04    2.70   0
   3  -5  11   70.93    3.58   0
   3   5  11   74.79    3.46   0
   3  -5  11   75.98    2.61   0
   3   5  11   73.82    3.76   0
  -3  -5 -11   77.75    2.79   0
   4  -5  11    7.70    3.28   0
   4  -5  11    8.77    3.33   0
  -4   5 -11    7.92    2.34   0
   4   5  11    8.41    3.32   0
   4  -5  11    7.60    2.22   0
   4   5  11    7.85    3.28   0
  -4  -5 -11    5.95    2.30   0
   5   5  11    2.34    4.23   0
   5  -5  11    2.72    3.36   0
  -5  -5 -11    5.35    3.32   0
   5  -5  11    3.37    4.02   0
  -5  -5 -11    2.79    3.49   0
  -5   5 -11    4.39    2.34   0
   5   5  11    1.99    2.31   0
   5  -5  11    4.43    3.19   0
 -12   6  11  473.12    4.57   0
 -12  -6  11  497.82    5.06   0
  12  -6 -11  494.79    5.24   0
 -12  -6  11  488.71    4.62   0
 -12   6  11  473.46    5.40   0
 -11   6  11  323.99    3.93   0
 -11  -6  11  359.82    4.50   0
  11  -6 -11  337.86    4.48   0
 -11  -6  11  310.97    3.78   0
 -11   6  11  317.75    3.91   0
 -10   6  11  410.94    4.68   0
 -10   6  11  411.31    4.16   0
 -10  -6  11  435.40    4.66   0
  10  -6 -11  403.79    4.57   0
 -10  -6  11  378.10    3.87   0
  -9   6  11  974.89    6.07   0
   9  -6 -11 1013.62    6.09   0
  -9   6  11  964.55    5.70   0
  -9  -6  11 1030.51    5.61   0
  -9  -6  11  982.61    5.65   0
  -8   6  11  445.48    4.03   0
  -8   6  11  501.94    5.07   0
  -8  -6  11  499.13    4.63   0
  -8  -6  11  463.47    4.19   0
   8  -6 -11  463.17    4.53   0
  -7   6  11   35.69    2.25   0
  -7   6  11   36.59    2.31   0
  -7  -6  11   40.14    2.92   0
  -7  -6  11   42.46    3.08   0
   7  -6 -11   39.91    2.92   0
  -6   6  11   50.80    2.91   0
  -6  -6  11   56.18    2.32   0
  -6  -6  11   54.38    2.30   0
   6  -6 -11   54.20    2.93   0
  -5   6  11   38.76    3.08   0
  -5  -6  11   40.46    2.17   0
  -5   6  11   37.22    2.47   0
  -5  -6  11   41.26    3.07   0
   5  -6 -11   40.08    2.98   0
  -4  -6  11  104.98    2.62   0
   4   6 -11   98.82    2.66   0
  -4   6  11  105.32    3.63   0
  -4  -6  11  118.43    3.38   0
   4  -6 -11  103.76    2.53   0
  -4   6  11  104.10    3.24   0
  -3  -6  11  396.72    3.79   0
   3   6 -11  387.84    4.29   0
  -3   6  11  369.70    4.58   0
  -3  -6  11  405.13    3.89   0
   3  -6 -11  393.63    4.29   0
  -3   6  11  376.96    4.26   0
  -2  -6  11  472.65    4.63   0
   2   6 -11  448.90    4.56   0
  -2   6  11  463.93    5.74   0
  -2  -6  11  490.74    4.63   0
   2  -6 -11  456.39    4.06   0
  -2   6  11  416.71    3.87   0
  -1  -6  11  363.84    4.39   0
   1   6 -11  337.06    3.76   0
  -1   6  11  346.43    5.38   0
  -1  -6  11  359.70    4.34   0
   1  -6 -11  355.07    4.27   0
  -1   6  11  329.88    4.22   0
   0  -6  11  164.75    3.07   0
   0   6 -11  156.37    2.92   0
   0   6  11  156.73    4.29   0
   0  -6  11  162.71    3.48   0
   0  -6 -11  160.07    2.97   0
   0   6  11  153.87    3.02   0
  -1   6 -11  568.38    5.05   0
   1  -6  11  544.21    4.32   0
  -1  -6 -11  573.64    5.28   0
   1   6  11  527.98    6.77   0
   1   6  11  503.96    4.50   0
   1  -6  11  564.72    5.41   0
  -2   6 -11  498.61    4.25   0
   2   6  11  474.28    5.07   0
  -2  -6 -11  505.97    4.68   0
   2  -6  11  486.48    4.17   0
   2  -6  11  484.82    4.89   0
   2   6  11  487.76    7.42   0
   3  -6  11  125.33    3.95   0
  -3   6 -11  142.22    3.84   0
   3   6  11  121.51    3.02   0
   3  -6  11  133.04    3.98   0
   3  -6  11  134.92    3.63   0
  -3  -6 -11  134.68    3.14   0
   3   6  11  131.46    5.19   0
   4   6  11   36.79    4.61   0
   4  -6  11   30.89    3.52   0
   4  -6  11   35.57    3.61   0
  -4   6 -11   42.02    3.40   0
   4   6  11   34.54    3.41   0
   4  -6  11   34.01    2.43   0
  -4  -6 -11   39.15    3.47   0
   5   6  11    0.57    4.12   0
   5  -6  11    1.44    3.31   0
   5  -6  11   -0.00    3.46   0
   5   6  11    2.21    3.33   0
  -5   6 -11    1.32    2.34   0
   5  -6  11    2.72    3.18   0
  -5  -6 -11    3.26    3.33   0
 -12  -7  11   18.90    2.53   0
  12  -7 -11   16.35    3.48   0
 -12  -7  11   15.96    3.54   0
 -12   7  11   15.18    2.62   0
 -12   7  11   16.38    2.65   0
 -11   7  11   16.85    2.54   0
 -11  -7  11   16.03    2.33   0
  11  -7 -11   15.36    3.20   0
 -11  -7  11   16.96    3.34   0
 -11   7  11   16.07    2.42   0
 -10   7  11   41.83    3.51   0
  10  -7 -11   42.23    3.29   0
 -10  -7  11   37.71    3.28   0
 -10  -7  11   34.13    3.34   0
 -10   7  11   32.22    2.44   0
  -9   7  11  146.60    3.17   0
  -9  -7  11  149.68    2.89   0
  -9  -7  11  145.90    2.99   0
  -9   7  11  141.42    3.02   0
   9  -7 -11  146.46    3.60   0
  -8   7  11  123.24    3.70   0
  -8  -7  11  128.03    3.50   0
  -8  -7  11  125.86    3.65   0
   8  -7 -11  116.93    3.44   0
  -8   7  11  119.26    3.56   0
  -7   7  11   17.36    2.37   0
  -7  -7  11   18.06    2.92   0
  -7  -7  11   19.30    2.25   0
   7  -7 -11   19.35    2.91   0
  -7   7  11   16.25    2.97   0
  -6   7  11  538.53    5.33   0
  -6  -7  11  500.72    4.09   0
  -6  -7  11  512.38    4.28   0
   6  -7 -11  498.32    4.59   0
  -6   7  11  457.92    4.04   0
  -5   7  11  814.58    6.48   0
  -5  -7  11  781.44    4.89   0
  -5  -7  11  840.70    5.67   0
   5  -7 -11  814.17    5.41   0
  -5   7  11  738.56    4.81   0
   4   7 -11  176.67    3.74   0
  -4   7  11  180.39    4.24   0
  -4  -7  11  181.35    3.02   0
  -4  -7  11  192.18    3.08   0
   4  -7 -11  180.38    2.91   0
  -4   7  11  166.77    2.83   0
   3   7 -11  434.61    4.47   0
  -3  -7  11  457.44    4.55   0
  -3   7  11  439.49    5.61   0
  -3  -7  11  475.10    4.54   0
   3  -7 -11  458.77    4.66   0
  -3   7  11  419.73    3.97   0
  -2  -7  11  702.27    4.97   0
   2   7 -11  689.43    5.26   0
  -2   7  11  707.01    7.05   0
   2  -7 -11  693.97    4.81   0
  -2  -7  11  712.59    4.73   0
  -2   7  11  655.32    4.64   0
  -1  -7  11  158.11    3.75   0
  -1   7  11  161.69    4.41   0
   1  -7 -11  164.77    3.58   0
  -1  -7  11  157.17    3.48   0
   1   7 -11  150.34    2.89   0
  -1   7  11  147.24    2.80   0
   0  -7  11   19.39    3.05   0
   0   7 -11   14.34    3.09   0
   0  -7 -11   16.07    3.02   0
   0   7  11   16.57    3.88   0
   0  -7  11   15.98    2.16   0
   0   7  11   17.01    2.18   0
   1  -7  11  178.90    3.95   0
  -1   7 -11  167.33    3.06   0
  -1  -7 -11  175.98    3.84   0
   1  -7  11  176.34    3.74   0
   1   7  11  161.42    3.08   0
   1   7  11  172.39    5.58   0
   2  -7  11    9.65    3.16   0
  -2   7 -11    5.03    2.24   0
  -2  -7 -11   10.47    3.10   0
   2   7  11    6.16    3.09   0
   2  -7  11    5.20    2.15   0
   2   7  11    8.29    3.98   0
   2  -7  11    8.66    3.09   0
   3   7  11  139.08    8.63   0
   3  -7  11  129.27    4.07   0
  -3   7 -11  156.09    3.88   0
   3   7  11  131.83    3.82   0
  -3  -7 -11  150.02    3.94   0
   3  -7  11  140.63    4.08   0
   3  -7  11  136.76    2.82   0
   4  -7  11   13.27    3.44   0
  -4   7 -11   19.06    3.38   0
   4   7  11   14.27    3.35   0
   4  -7  11   18.74    3.39   0
  -4  -7 -11   21.69    3.34   0
   4  -7  11   23.39    3.22   0
   5  -7  11   67.76    4.19   0
   5  -7  11   66.97    4.94   0
   5   7  11   58.87    3.00   0
  -5   7 -11   72.43    3.78   0
  -5  -7 -11   69.84    3.10   0
   5  -7  11   80.89    3.70   0
 -12  -8  11  247.74    4.43   0
  12  -8 -11  220.77    3.62   0
 -12  -8  11  222.31    3.76   0
 -12   8  11  220.01    3.84   0
 -12   8  11  228.67    3.75   0
  11  -8 -11  206.10    4.16   0
 -11  -8  11  226.61    4.17   0
 -11  -8  11  209.64    4.30   0
 -11   8  11  218.85    4.27   0
 -11   8  11  233.24    4.39   0
 -10   8  11  139.27    3.14   0
 -10  -8  11  150.41    2.98   0
 -10  -8  11  145.89    3.15   0
 -10   8  11  140.13    3.08   0
  10  -8 -11  143.79    2.99   0
  -9   8  11  566.38    4.77   0
  -9  -8  11  578.78    4.94   0
  -9  -8  11  603.03    5.27   0
   9  -8 -11  586.12    5.10   0
  -9   8  11  538.28    4.54   0
  -8   8  11  713.39    5.29   0
  -8  -8  11  713.37    4.84   0
  -8  -8  11  757.71    5.62   0
   8  -8 -11  721.27    5.30   0
  -8   8  11  664.50    4.71   0
  -7   8  11   50.12    3.40   0
  -7  -8  11   49.15    2.31   0
  -7  -8  11   54.19    2.50   0
   7  -8 -11   48.80    2.37   0
  -7   8  11   52.22    2.46   0
  -6   8  11   10.02    3.22   0
  -6  -8  11   11.66    2.22   0
  -6  -8  11   12.17    2.91   0
   6  -8 -11   11.54    2.02   0
  -6   8  11   13.45    2.19   0
  -5   8  11   81.42    3.59   0
  -5  -8  11   77.88    2.55   0
  -5  -8  11   91.27    3.37   0
   5  -8 -11   83.99    2.50   0
  -5   8  11   75.11    2.47   0
  -4   8  11   31.88    2.43   0
   4   8 -11   34.67    3.23   0
  -4   8  11   34.09    3.32   0
  -4  -8  11   34.91    3.10   0
  -4  -8  11   34.90    2.28   0
   4  -8 -11   30.29    2.23   0
  -4   8  11   34.15    3.05   0
  -3   8  11  343.91    5.33   0
   3   8 -11  332.19    4.30   0
  -3   8  11  335.25    5.36   0
  -3  -8  11  345.03    3.63   0
   3  -8 -11  340.42    3.63   0
  -3  -8  11  342.42    3.63   0
  -3   8  11  313.88    3.56   0
  -2   8  11  308.44    5.36   0
   2   8 -11  282.88    3.48   0
  -2  -8  11  288.76    3.59   0
  -2   8  11  293.40    5.28   0
   2  -8 -11  314.55    4.19   0
  -2  -8  11  295.90    3.43   0
  -2   8  11  281.75    3.46   0
  -1   8  11  212.09    5.06   0
  -1  -8  11  212.95    3.79   0
   1   8 -11  202.35    3.12   0
   1  -8 -11  209.98    3.16   0
  -1   8  11  215.76    5.48   0
  -1  -8  11  209.68    3.11   0
  -1   8  11  189.38    3.02   0
   0   8  11  529.94    8.65   0
   0  -8  11  556.38    4.71   0
   0   8 -11  561.45    4.46   0
   0  -8 -11  591.28    4.66   0
   0   8  11  553.18    8.53   0
   0  -8  11  607.08    4.95   0
   0   8  11  524.64    4.42   0
   1   8  11  772.56   16.62   0
   1  -8  11  788.66    5.69   0
   1  -8  11  757.04    5.61   0
  -1   8 -11  832.77    5.83   0
  -1  -8 -11  865.75    5.96   0
   1   8  11  782.04    5.73   0
   1  -8  11  826.47    5.66   0
   1   8  11  779.75   15.95   0
   2  -8  11  315.91    4.15   0
   2  -8  11  290.55    4.07   0
  -2   8 -11  325.27    4.48   0
  -2  -8 -11  350.41    4.63   0
   2   8  11  294.12    4.43   0
   2  -8  11  315.54    3.66   0
   3  -8  11   89.23    3.92   0
  -3   8 -11   94.79    3.66   0
   3   8  11   96.37    3.69   0
  -3  -8 -11   92.69    2.95   0
   3  -8  11   85.52    2.64   0
   3  -8  11   89.10    3.07   0
   4  -8  11  111.07    4.15   0
   4   8  11   99.67    3.09   0
  -4   8 -11  123.10    3.89   0
  -4  -8 -11  117.53    4.00   0
   4  -8  11  109.79    4.22   0
   4  -8  11  120.58    2.99   0
  11  -9 -11   -2.94    3.32   0
 -11  -9  11   -1.59    2.33   0
 -11  -9  11    0.76    2.29   0
 -11  -9  11   -0.15    2.37   0
 -11   9  11   -2.34    3.54   0
 -11   9  11    0.58    2.40   0
 -10  -9  11  103.40    2.86   0
 -10  -9  11  116.90    3.85   0
 -10   9  11   99.10    3.00   0
  10  -9 -11  109.59    3.65   0
 -10   9  11  100.68    3.05   0
  -9  -9  11   59.73    2.67   0
  -9  -9  11   57.08    3.43   0
   9  -9 -11   61.02    3.36   0
  -9   9  11   53.32    3.54   0
  -9   9  11   56.13    2.74   0
  -8   9  11   48.61    2.64   0
  -8  -9  11   52.90    2.62   0
  -8  -9  11   51.38    2.50   0
   8  -9 -11   49.19    3.18   0
  -8   9  11   48.33    2.49   0
  -7   9  11  307.00    4.68   0
  -7  -9  11  326.09    4.41   0
  -7  -9  11  293.74    3.40   0
   7  -9 -11  315.92    4.12   0
  -7   9  11  285.72    3.56   0
  -6   9  11  741.95    6.20   0
  -6  -9  11  773.88    5.08   0
  -6  -9  11  714.32    4.72   0
   6  -9 -11  776.93    5.35   0
  -6   9  11  680.70    4.72   0
  -5   9  11  279.63    3.98   0
  -5  -9  11  295.51    4.21   0
   5  -9 -11  304.90    4.01   0
  -5  -9  11  274.42    3.44   0
  -5   9  11  268.50    3.41   0
  -4   9  11  230.57    4.59   0
   4   9 -11  209.06    3.34   0
  -4   9  11  214.75    3.95   0
   4  -9 -11  227.53    3.14   0
  -4  -9  11  234.52    3.96   0
  -4  -9  11  224.96    3.22   0
  -4   9  11  217.30    3.82   0
  -3   9  11  263.56    5.01   0
  -3   9  11  257.20    5.01   0
   3   9 -11  242.33    3.35   0
   3  -9 -11  252.98    3.35   0
  -3  -9  11  267.90    3.97   0
  -3  -9  11  263.17    3.98   0
  -3   9  11  235.21    3.29   0
  -2   9  11   33.18    4.16   0
  -2   9  11   30.98    4.13   0
   2  -9 -11   35.14    2.33   0
  -2  -9  11   35.44    3.05   0
  -2  -9  11   32.04    2.20   0
  -2   9  11   28.17    2.29   0
   2   9 -11   34.71    3.13   0
  -1   9  11  124.47    5.23   0
   1   9 -11  123.59    3.54   0
  -1  -9  11  116.85    2.77   0
   1  -9 -11  130.24    3.50   0
  -1   9  11  123.55    5.13   0
  -1  -9  11  121.69    2.75   0
  -1   9  11  122.30    3.47   0
   0  -9  11    2.81    2.13   0
   0  -9  11    4.05    2.18   0
   0   9 -11    3.56    2.18   0
   0  -9 -11    1.90    3.03   0
   0   9  11    3.15    3.05   0
   0  -9  11    4.66    2.06   0
   0   9  11    3.78    6.06   0
   0   9  11    2.94    6.06   0
   1  -9  11   97.21    3.66   0
   1  -9  11   96.43    2.84   0
  -1   9 -11   99.85    3.55   0
  -1  -9 -11  101.89    2.77   0
   1   9  11   90.66    2.79   0
   1  -9  11   95.54    2.67   0
   2  -9  11  195.52    4.15   0
   2  -9  11  183.95    4.14   0
  -2   9 -11  181.53    3.24   0
  -2  -9 -11  189.95    3.33   0
   2   9  11  158.14    3.21   0
   2  -9  11  177.18    3.11   0
   3  -9  11  108.05    4.08   0
  -3   9 -11  119.20    3.71   0
   3   9  11  109.85    3.80   0
  -3  -9 -11  127.40    3.94   0
   3  -9  11  116.53    2.82   0
   3  -9  11  120.01    4.04   0
   4  -9  11   63.37    3.85   0
   4   9  11   66.33    3.75   0
  -4   9 -11   74.59    3.67   0
  -4  -9 -11   71.42    3.87   0
   4  -9  11   68.48    3.80   0
   4  -9  11   68.14    3.50   0
 -10 -10  11   27.41    3.28   0
 -10 -10  11   26.12    2.56   0
 -10 -10  11   23.69    2.52   0
 -10  10  11   23.06    2.54   0
  10 -10 -11   27.41    3.32   0
 -10  10  11   26.75    3.57   0
  -9 -10  11  101.58    2.70   0
  -9 -10  11  119.33    3.83   0
  -9 -10  11  117.16    3.61   0
   9 -10 -11   99.89    2.82   0
  -9  10  11  101.04    2.97   0
  -9  10  11  102.76    3.06   0
  -8 -10  11   78.48    2.53   0
  -8 -10  11   84.62    3.56   0
  -8 -10  11   73.83    2.64   0
   8 -10 -11   84.28    3.38   0
  -8  10  11   74.29    2.64   0
  -8  10  11   78.36    3.75   0
  -7 -10  11   17.84    3.22   0
   7 -10 -11   19.20    3.09   0
  -7 -10  11   16.64    2.23   0
  -7  10  11   20.68    2.40   0
  -7  10  11   17.84    3.46   0
  -6 -10  11   65.35    3.33   0
   6 -10 -11   63.37    3.25   0
  -6 -10  11   61.19    2.46   0
  -6  10  11   56.54    2.52   0
  -6  10  11   61.04    3.60   0
   5 -10 -11  140.23    3.50   0
  -5 -10  11  138.37    2.87   0
  -5 -10  11  125.67    2.83   0
  -5  10  11  125.96    2.73   0
  -5  10  11  131.07    4.02   0
   4  10 -11    2.74    3.15   0
  -4  10  11    2.57    3.28   0
   4 -10 -11    3.90    1.99   0
  -4 -10  11    3.33    3.08   0
  -4 -10  11    4.06    2.11   0
  -4  10  11   -0.75    2.10   0
  -4  10  11    2.78    3.25   0
  -3 -10  11   38.46    3.19   0
   3  10 -11   35.86    3.30   0
  -3  10  11   36.95    3.60   0
   3 -10 -11   41.72    2.27   0
  -3 -10  11   45.71    2.37   0
  -3 -10  11   42.71    3.20   0
  -3  10  11   32.34    3.09   0
  -3  10  11   40.51    4.18   0
  -2 -10  11   28.51    2.25   0
   2  10 -11   31.17    3.22   0
   2 -10 -11   31.46    2.31   0
  -2  10  11   29.94    4.22   0
  -2 -10  11   31.91    2.92   0
  -2 -10  11   32.09    2.30   0
  -2  10  11   28.16    3.13   0
  -2  10  11   29.81    3.47   0
  -1 -10  11   59.80    2.48   0
   1  10 -11   62.90    3.44   0
   1 -10 -11   66.89    3.22   0
  -1 -10  11   60.44    3.32   0
  -1  10  11   63.96    5.50   0
  -1  10  11   60.67    2.45   0
  -1 -10  11   61.11    2.46   0
  -1  10  11   60.27    5.41   0
   0 -10  11   78.71    3.52   0
   0  10 -11   79.38    2.67   0
   0 -10 -11   84.92    3.44   0
   0 -10  11   79.74    3.56   0
   0  10  11   73.53    2.63   0
   0 -10  11   79.06    2.56   0
   1 -10  11   62.25    3.50   0
   1 -10  11   67.04    3.47   0
  -1  10 -11   71.02    3.44   0
  -1 -10 -11   65.59    2.69   0
   1  10  11   57.55    2.63   0
   1 -10  11   67.08    3.24   0
   2 -10  11   40.55    3.43   0
   2 -10  11   42.93    3.49   0
  -2  10 -11   40.19    2.65   0
  -2 -10 -11   41.60    2.60   0
   2  10  11   35.37    2.55   0
   2 -10  11   40.45    2.51   0
   3 -10  11   59.26    2.85   0
   3 -10  11   62.25    3.78   0
  -3  10 -11   61.45    2.80   0
   3  10  11   58.88    3.59   0
  -3 -10 -11   67.63    3.72   0
   3 -10  11   64.84    2.80   0
 -10 -11  11    4.62    2.43   0
 -10 -11  11    7.97    3.46   0
 -10 -11  11    5.15    3.48   0
 -10  11  11    4.03    3.58   0
  10 -11 -11    6.62    3.33   0
 -10  11  11    5.96    3.56   0
  -9 -11  11   35.74    3.28   0
  -9 -11  11   35.88    2.62   0
  -9 -11  11   34.66    2.52   0
   9 -11 -11   36.38    3.35   0
  -9  11  11   31.26    2.56   0
  -9  11  11   31.85    2.73   0
  -8 -11  11   18.22    3.22   0
  -8 -11  11   18.71    3.38   0
   8 -11 -11   16.18    3.23   0
  -8 -11  11   18.02    3.28   0
  -8  11  11   18.87    3.35   0
  -8  11  11   17.37    2.58   0
  -7 -11  11    0.86    2.16   0
  -7 -11  11   -0.38    2.17   0
   7 -11 -11    1.88    2.19   0
  -7  11  11    4.88    3.27   0
  -7 -11  11    2.16    3.07   0
  -7  11  11   -0.20    3.36   0
  -6 -11  11    6.91    2.23   0
   6 -11 -11    7.15    2.28   0
  -6 -11  11    9.84    3.13   0
  -6  11  11    8.61    2.29   0
  -6 -11  11    9.65    3.25   0
  -6  11  11    7.35    3.34   0
  -5 -11  11   12.83    2.23   0
   5 -11 -11   11.85    2.20   0
  -5 -11  11   14.91    2.28   0
  -5  11  11   13.62    3.19   0
  -5 -11  11   12.22    2.30   0
  -5  11  11   10.81    3.33   0
  -4 -11  11   -1.31    3.12   0
  -4  11  11    3.60    3.36   0
   4  11 -11    2.67    2.25   0
   4 -11 -11    2.11    3.08   0
  -4 -11  11    2.33    2.23   0
  -4  11  11    2.32    2.18   0
  -4 -11  11    3.13    2.11   0
  -4  11  11    1.54    3.33   0
  -3 -11  11   79.63    3.36   0
   3  11 -11   76.29    3.55   0
  -3  11  11   77.44    4.11   0
   3 -11 -11   82.34    2.58   0
  -3 -11  11   89.41    3.38   0
  -3  11  11   76.71    3.39   0
  -3 -11  11   87.61    3.51   0
  -3  11  11   80.30    3.97   0
  -2 -11  11   25.39    2.28   0
   2  11 -11   26.57    3.41   0
   2 -11 -11   28.21    3.30   0
  -2  11  11   27.04    4.29   0
  -2  11  11   27.24    2.33   0
  -2 -11  11   30.00    3.16   0
  -2 -11  11   27.21    3.13   0
  -2  11  11   24.52    4.12   0
  -1 -11  11   33.10    2.43   0
   1 -11 -11   38.74    2.50   0
   1  11 -11   34.98    3.37   0
  -1  11  11   30.25    3.19   0
  -1 -11  11   34.04    2.34   0
  -1 -11  11   37.71    3.35   0
   0 -11  11    1.98    3.13   0
   0 -11 -11    6.23    2.23   0
   0  11 -11    0.31    2.22   0
   0  11  11    2.79    2.23   0
   0 -11  11    0.32    3.11   0
   0 -11  11   -1.18    2.97   0
   1 -11  11    3.51    3.29   0
  -1 -11 -11    6.97    3.23   0
  -1  11 -11    2.80    2.34   0
   1 -11  11    5.68    2.36   0
   1  11  11    4.40    3.29   0
   1 -11  11    2.92    2.29   0
   2 -11  11   12.44    3.41   0
   2 -11  11   16.57    2.47   0
  -2 -11 -11   14.09    2.40   0
  -2  11 -11   15.85    3.47   0
   2  11  11   12.84    2.37   0
   2 -11  11   15.91    3.29   0
  -9 -12  11   14.32    2.44   0
  -9 -12  11   19.54    3.49   0
   9 -12 -11   14.49    2.39   0
  -9  12  11   15.53    3.49   0
  -9 -12  11   18.59    3.38   0
  -9  12  11   12.01    2.55   0
  -8 -12  11   60.08    2.67   0
  -8 -12  11   71.44    2.89   0
   8 -12 -11   71.47    2.72   0
  -8  12  11   59.29    2.78   0
  -8 -12  11   64.69    2.67   0
  -8  12  11   66.39    3.83   0
  -7 -12  11  118.31    3.60   0
   7 -12 -11  122.23    3.67   0
  -7 -12  11  119.15    3.02   0
  -7  12  11  100.04    2.83   0
  -7 -12  11  114.91    2.82   0
  -7  12  11  109.99    4.10   0
  -6 -12  11   19.08    3.18   0
   6 -12 -11   22.13    3.20   0
  -6 -12  11   18.94    3.31   0
  -6  12  11   14.82    3.35   0
  -6 -12  11   13.32    2.37   0
  -6  12  11   15.40    2.52   0
  -5 -12  11    5.57    3.14   0
   5 -12 -11   10.45    3.08   0
  -5 -12  11    3.96    2.26   0
  -5  12  11    4.05    2.24   0
  -5 -12  11    4.86    2.27   0
  -5  12  11    6.42    3.34   0
  -4 -12  11   27.98    2.41   0
  -4  12  11   28.29    3.68   0
   4  12 -11   28.94    2.60   0
   4 -12 -11   30.45    2.35   0
  -4 -12  11   28.66    2.30   0
  -4  12  11   24.42    3.20   0
  -4  12  11   27.38    3.48   0
  -4 -12  11   29.47    3.28   0
  -3 -12  11    4.80    2.25   0
   3  12 -11    3.54    3.29   0
  -3  12  11    3.42    4.06   0
   3 -12 -11    3.75    2.17   0
  -3  12  11    5.26    3.10   0
  -3 -12  11    6.22    2.19   0
  -3  12  11    3.18    3.20   0
  -3 -12  11    0.75    2.32   0
  -2 -12  11   35.89    3.25   0
   2 -12 -11   36.73    2.46   0
   2  12 -11   37.21    3.45   0
  -2  12  11   37.63    4.78   0
  -2  12  11   35.08    3.27   0
  -2 -12  11   39.91    2.44   0
  -2  12  11   33.82    4.54   0
  -2 -12  11   34.57    2.53   0
  -1 -12  11   38.10    3.32   0
   1 -12 -11   34.11    2.48   0
   1  12 -11   32.03    2.46   0
  -1  12  11   31.19    3.35   0
  -1 -12  11   35.17    2.37   0
  -1 -12  11   34.09    2.51   0
   0 -12  11   38.43    2.59   0
   0 -12 -11   43.41    3.44   0
   0  12 -11   47.82    3.56   0
   0  12  11   37.68    3.45   0
   0 -12  11   42.57    3.48   0
   0 -12  11   42.21    3.41   0
   1 -12  11   78.56    3.76   0
  -1 -12 -11   81.90    2.89   0
  -1  12 -11   85.94    3.77   0
   1  12  11   80.59    3.78   0
   1 -12  11   76.71    2.87   0
   1 -12  11   88.98    3.50   0
  -7 -13  11  132.27    2.97   0
   7 -13 -11  156.34    3.87   0
  -7 -13  11  169.36    4.06   0
  -7  13  11  136.31    3.96   0
  -7 -13  11  138.13    2.99   0
  -7  13  11  142.05    4.28   0
  -6 -13  11  112.51    2.80   0
   6 -13 -11  125.08    3.03   0
  -6 -13  11  137.53    3.86   0
  -6  13  11  111.71    3.07   0
  -6  13  11  109.41    4.14   0
  -6 -13  11  109.95    2.91   0
  -5 -13  11   99.76    2.84   0
   5 -13 -11  108.35    3.65   0
  -5 -13  11  107.92    2.91   0
  -5  13  11  101.14    3.72   0
  -5  13  11   98.10    4.14   0
  -5 -13  11  108.08    3.67   0
  -4 -13  11   17.47    3.13   0
  -4  13  11   15.06    3.82   0
   4  13 -11   13.83    3.53   0
   4 -13 -11   14.25    2.30   0
  -4  13  11   13.94    3.36   0
  -4 -13  11   14.35    3.26   0
  -4  13  11   11.83    3.69   0
  -4 -13  11   11.50    3.28   0
  -3 -13  11    3.53    3.13   0
   3  13 -11    2.00    2.53   0
   3 -13 -11    4.24    2.38   0
  -3  13  11    2.98    3.53   0
  -3  13  11    1.36    2.34   0
  -3 -13  11   -0.40    3.16   0
  -3  13  11    2.37    3.34   0
  -3 -13  11    2.79    2.25   0
  -2 -13  11    9.95    2.34   0
   2 -13 -11   13.03    2.35   0
   2  13 -11   10.10    2.50   0
  -2  13  11   10.93    3.23   0
  -2 -13  11    9.56    3.25   0
  -2 -13  11   13.42    3.24   0
  -1 -13  11   13.42    2.42   0
   1 -13 -11   12.12    3.36   0
   1  13 -11   12.31    2.46   0
  -1  13  11   12.36    2.41   0
  -1 -13  11   12.53    3.29   0
  -1 -13  11   18.05    3.34   0
   0 -13  11    5.62    3.41   0
   0 -13 -11    5.11    3.29   0
   0  13 -11    2.64    2.53   0
   0  13  11    7.64    3.27   0
   0 -13  11    6.61    3.40   0
   0 -13  11    8.16    3.25   0
  -5 -14  11    8.46    3.38   0
  -5 -14  11    9.56    3.33   0
   5 -14 -11    8.58    3.35   0
  -5  14  11    3.85    2.40   0
  -5 -14  11    5.51    2.28   0
  -5  14  11    7.88    3.44   0
  -4 -14  11   57.34    3.56   0
  -4 -14  11   52.65    2.62   0
   4  14 -11   54.63    3.75   0
  -4  14  11   58.19    4.34   0
   4 -14 -11   59.67    2.67   0
  -4  14  11   56.35    2.72   0
  -4 -14  11   68.48    3.52   0
  -4  14  11   56.18    4.18   0
  -3 -14  11   67.68    2.66   0
   3  14 -11   66.88    3.81   0
   3 -14 -11   69.24    2.82   0
  -3  14  11   67.73    5.26   0
  -3  14  11   66.49    2.73   0
  -3 -14  11   65.63    2.78   0
  -3  14  11   63.67    4.91   0
  -3 -14  11   62.33    2.77   0
  -2 -14  11  171.56    4.02   0
   2 -14 -11  183.57    4.14   0
   2  14 -11  170.68    4.08   0
  -2  14  11  142.65    3.06   0
  -2 -14  11  175.32    4.03   0
  -2 -14  11  180.30    4.07   0
 -13   0  12    8.33    3.52   0
  13   0 -12    7.01    2.36   0
 -13   0  12   12.38    3.52   0
 -12   0  12   12.56    2.40   0
  12   0 -12   10.02    3.04   0
 -11   0  12  369.27    3.95   0
  11   0 -12  361.76    4.36   0
  10   0 -12  249.12    3.93   0
 -10   0  12  253.48    3.99   0
 -10   0  12  272.77    4.14   0
   9   0 -12  821.11    5.06   0
  -9   0  12  829.48    5.21   0
  -9   0  12  904.01    5.83   0
  -8   0  12  868.44    5.38   0
  -8   0  12  941.52    5.47   0
   8   0 -12  926.77    5.77   0
  -7   0  12  462.08    4.74   0
  -7   0  12  503.86    4.60   0
   7   0 -12  473.75    4.03   0
  -6   0  12  340.73    3.71   0
  -6   0  12  370.68    3.61   0
   6   0 -12  345.40    3.61   0
  -5   0  12   11.86    3.04   0
  -5   0  12    9.71    2.78   0
   5   0 -12    9.73    2.00   0
  -4   0  12 1994.73    8.40   0
  -4   0  12 2025.87    8.12   0
   4   0 -12 1940.93    8.04   0
  -3   0  12  677.14    5.17   0
  -3   0  12  695.41    5.53   0
   3   0 -12  648.65    4.71   0
  -2   0  12    6.22    2.75   0
  -2   0  12    9.83    2.93   0
   2   0 -12    7.88    2.85   0
   1   0 -12   19.88    3.04   0
  -1   0  12   16.58    2.84   0
  -1   0  12   19.72    3.00   0
   1   0 -12   14.15    1.97   0
   0   0  12   18.84    2.96   0
   0   0  12   24.67    3.07   0
   0   0 -12   17.51    2.97   0
   0   0 -12   18.80    3.01   0
   1   0  12  240.84    4.17   0
  -1   0 -12  254.31    4.33   0
   1   0  12  266.30    4.34   0
  -1   0 -12  258.28    4.25   0
   2   0  12 1979.14    9.42   0
  -2   0 -12 2097.89    9.93   0
  -2   0 -12 2141.44    9.41   0
   2   0  12 2081.36    9.11   0
  -3   0 -12  827.63    7.04   0
  -3   0 -12  852.05    6.58   0
   3   0  12  787.74    5.75   0
   3   0  12  769.59    6.72   0
  -4   0 -12 1184.60    7.66   0
   4   0  12 1117.25    7.22   0
   4   0  12 1074.81    8.45   0
  -4   0 -12 1111.24    8.65   0
  -5   0 -12 1268.72   10.41   0
  -5   0 -12 1446.04    8.43   0
   5   0  12 1216.38   10.05   0
   5   0  12 1308.83    7.97   0
 -13   1  12    5.01    3.48   0
 -13  -1  12    2.96    2.41   0
 -13   1  12    5.44    3.44   0
 -13  -1  12    4.55    3.46   0
  13  -1 -12    3.23    3.23   0
  13   1 -12    3.45    3.30   0
 -12   1  12   35.56    3.49   0
  12   1 -12   34.61    3.28   0
 -12   1  12   36.29    2.44   0
  12  -1 -12   30.84    2.38   0
 -12  -1  12   39.96    2.58   0
  11  -1 -12   53.45    3.18   0
 -11  -1  12   45.80    2.50   0
 -11   1  12   52.00    2.54   0
 -11  -1  12   46.92    2.59   0
  11   1 -12   45.04    2.42   0
  10  -1 -12   15.19    3.00   0
 -10  -1  12   10.86    2.27   0
 -10   1  12   13.60    2.19   0
 -10  -1  12   10.68    3.11   0
  10   1 -12   13.77    2.94   0
  -9   1  12   11.99    3.17   0
   9   1 -12    8.47    2.11   0
  -9  -1  12   13.40    3.06   0
  -9   1  12   11.27    2.10   0
  -9  -1  12   12.45    3.01   0
   9  -1 -12   10.47    2.00   0
   8   1 -12   67.05    2.40   0
  -8   1  12   70.35    3.31   0
  -8  -1  12   71.93    3.25   0
  -8   1  12   75.69    2.50   0
  -8  -1  12   76.72    2.51   0
   8  -1 -12   73.68    3.19   0
   7   1 -12  163.60    2.88   0
  -7   1  12  158.41    2.96   0
  -7  -1  12  157.40    2.96   0
  -7   1  12  168.59    2.93   0
   7  -1 -12  172.43    3.48   0
  -7  -1  12  190.44    3.62   0
   6   1 -12   54.19    2.90   0
  -6   1  12   54.92    3.15   0
  -6  -1  12   54.29    3.15   0
  -6   1  12   57.12    2.21   0
   6  -1 -12   54.79    2.19   0
  -6  -1  12   57.04    3.03   0
  -5   1  12  158.31    2.89   0
  -5   1  12  149.75    3.02   0
  -5  -1  12  159.10    3.02   0
   5  -1 -12  161.28    3.43   0
  -5  -1  12  162.37    2.90   0
   5   1 -12  153.15    3.48   0
  -4   1  12   91.47    2.59   0
  -4   1  12   89.66    3.47   0
   4  -1 -12   91.04    2.49   0
  -4  -1  12   94.09    2.70   0
  -4  -1  12   96.26    2.64   0
   4   1 -12   88.41    2.48   0
  -3   1  12  136.85    2.72   0
   3  -1 -12  137.73    3.47   0
  -3   1  12  145.74    3.65   0
  -3  -1  12  137.74    3.59   0
  -3  -1  12  142.67    3.39   0
   3   1 -12  127.86    2.67   0
  -2   1  12   92.61    3.21   0
   2  -1 -12   93.20    3.13   0
  -2  -1  12   87.56    2.49   0
  -2   1  12   93.05    3.44   0
  -2  -1  12   95.95    3.43   0
   2   1 -12   89.79    3.15   0
   1   1 -12    1.93    2.77   0
  -1   1  12    0.70    2.72   0
   1   1 -12    1.52    2.07   0
  -1  -1  12    2.20    1.93   0
   1  -1 -12    1.05    1.94   0
  -1   1  12    1.18    2.95   0
  -1  -1  12    2.04    2.90   0
   0   1 -12   40.03    2.27   0
   0   1  12   40.37    2.28   0
   0  -1 -12   42.44    2.52   0
   0  -1  12   42.67    3.07   0
   0   1 -12   44.92    3.20   0
   0  -1 -12   44.49    3.08   0
   0   1  12   43.29    2.49   0
   0  -1  12   44.84    2.36   0
   1   1  12   35.07    3.11   0
  -1   1 -12   33.16    2.34   0
   1  -1  12   36.42    2.39   0
  -1  -1 -12   36.77    3.26   0
  -1   1 -12   38.13    3.22   0
  -1  -1 -12   38.28    2.39   0
   1   1  12   36.19    3.13   0
   1  -1  12   39.76    3.07   0
   2   1  12    1.80    2.16   0
   2  -1  12    2.67    3.10   0
  -2  -1 -12    1.36    3.21   0
  -2   1 -12    4.92    2.23   0
  -2   1 -12   -0.07    3.10   0
   2  -1  12    0.12    2.14   0
   2   1  12    1.86    2.23   0
  -2  -1 -12    2.65    3.11   0
  -3   1 -12    1.62    3.10   0
   3  -1  12    2.22    3.12   0
  -3  -1 -12    2.48    3.24   0
  -3   1 -12    0.29    2.22   0
   3  -1  12    0.08    3.15   0
   3   1  12   -2.01    3.24   0
   3   1  12    2.04    3.19   0
  -3  -1 -12    3.39    3.13   0
  -4   1 -12   10.57    3.37   0
  -4  -1 -12   10.79    3.45   0
  -4  -1 -12   12.95    3.40   0
  -4   1 -12   12.74    3.43   0
   4   1  12    9.50    3.36   0
   4  -1  12   10.30    2.40   0
   4   1  12   11.40    2.31   0
   4  -1  12   10.96    3.41   0
  -5  -1 -12   40.34    4.71   0
  -5  -1 -12   46.64    3.69   0
  -5   1 -12   47.30    3.69   0
   5   1  12   42.48    4.56   0
   5  -1  12   42.36    3.91   0
   5  -1  12   46.32    3.59   0
   5   1  12   47.88    3.55   0
 -13   2  12    4.98    3.45   0
 -13   2  12    5.02    3.49   0
 -13  -2  12    4.40    2.45   0
  13  -2 -12    3.17    3.22   0
  13   2 -12    3.80    3.21   0
 -13  -2  12    5.69    3.38   0
 -12   2  12  104.26    2.99   0
  12  -2 -12   97.50    3.57   0
 -12   2  12   98.94    2.97   0
 -12  -2  12   93.57    2.79   0
 -12  -2  12  112.34    3.75   0
  12   2 -12   92.76    2.79   0
 -11   2  12  133.31    3.01   0
 -11   2  12  138.37    3.72   0
  11   2 -12  122.69    2.77   0
 -11  -2  12  135.11    3.76   0
 -11  -2  12  144.35    3.64   0
  11  -2 -12  132.12    2.86   0
  10   2 -12  187.66    3.74   0
 -10   2  12  205.85    3.29   0
 -10  -2  12  205.93    3.83   0
 -10  -2  12  220.42    3.26   0
  10  -2 -12  189.12    3.14   0
  -9   2  12  498.53    4.20   0
  -9  -2  12  479.18    4.12   0
   9  -2 -12  474.73    4.06   0
   9   2 -12  469.45    4.04   0
  -9  -2  12  534.91    4.84   0
  -8   2  12  874.12    5.42   0
  -8   2  12  938.82    5.89   0
  -8  -2  12  873.29    5.25   0
   8   2 -12  859.49    5.14   0
   8  -2 -12  910.63    5.75   0
  -8  -2  12  953.40    5.39   0
  -7   2  12  175.65    3.57   0
  -7   2  12  162.29    3.11   0
  -7  -2  12  162.96    2.96   0
   7   2 -12  168.27    3.36   0
   7  -2 -12  174.47    3.49   0
  -7  -2  12  180.93    3.46   0
   6   2 -12   95.41    2.38   0
  -6   2  12   97.52    2.55   0
   6  -2 -12   98.60    2.53   0
  -6   2  12  101.79    3.35   0
  -6  -2  12  101.50    3.41   0
  -6  -2  12  113.45    3.18   0
   5   2 -12  409.48    4.35   0
   5  -2 -12  431.91    4.33   0
  -5   2  12  430.53    4.34   0
  -5   2  12  398.67    4.10   0
  -5  -2  12  426.29    4.51   0
  -5  -2  12  425.41    3.90   0
   4   2 -12  247.07    3.31   0
  -4   2  12  250.35    3.30   0
   4  -2 -12  271.13    3.91   0
  -4   2  12  259.34    4.16   0
  -4  -2  12  273.74    3.51   0
  -4  -2  12  270.09    3.37   0
   3   2 -12   67.33    2.40   0
   3  -2 -12   70.92    2.43   0
  -3   2  12   71.86    3.12   0
  -3   2  12   71.22    3.33   0
  -3  -2  12   71.76    3.24   0
  -3  -2  12   74.93    3.05   0
  -2   2  12   55.88    2.25   0
   2  -2 -12   55.84    2.24   0
   2   2 -12   60.21    2.98   0
   2   2 -12   54.33    2.52   0
  -2   2  12   57.78    2.48   0
  -2  -2  12   60.20    2.38   0
  -2  -2  12   61.37    3.02   0
  -1   2  12   12.51    1.99   0
   1  -2 -12   15.03    2.94   0
   1   2 -12   12.99    2.81   0
  -1  -2  12   17.03    2.04   0
  -1   2  12   17.12    2.98   0
  -1  -2  12   14.77    2.07   0
   1   2 -12   14.71    2.99   0
   0   2  12    1.82    1.97   0
   0  -2 -12    1.88    2.88   0
   0   2 -12    1.42    2.03   0
   0  -2  12   -0.64    2.87   0
   0   2 -12    2.88    2.81   0
   0   2  12    1.08    2.05   0
   0  -2  12    0.93    2.05   0
   1   2  12  274.25    4.27   0
  -1  -2 -12  288.73    3.96   0
   1  -2  12  286.51    3.86   0
  -1  -2 -12  293.36    3.85   0
  -1   2 -12  302.98    4.35   0
   1  -2  12  288.41    3.72   0
   1   2  12  290.78    4.49   0
  -1   2 -12  276.88    3.77   0
   2  -2  12  612.76    5.85   0
  -2   2 -12  595.49    5.93   0
  -2  -2 -12  608.42    6.09   0
  -2   2 -12  615.85    5.02   0
  -2  -2 -12  622.41    5.92   0
   2  -2  12  597.45    4.88   0
   2   2  12  601.58    5.85   0
   2   2  12  578.17    5.64   0
  -3   2 -12  255.62    4.10   0
   3  -2  12  268.34    4.81   0
  -3  -2 -12  279.42    4.79   0
  -3   2 -12  279.43    3.82   0
  -3  -2 -12  288.80    4.77   0
   3  -2  12  272.69    4.40   0
   3   2  12  255.31    3.96   0
   3   2  12  237.31    3.84   0
   4  -2  12  287.90    5.38   0
  -4  -2 -12  318.31    4.55   0
  -4   2 -12  353.98    4.85   0
   4   2  12  304.05    5.14   0
   4  -2  12  326.55    4.62   0
  -4  -2 -12  303.09    4.65   0
   4   2  12  323.00    5.02   0
  -5  -2 -12  307.55    6.36   0
  -5  -2 -12  327.78    5.35   0
  -5   2 -12  327.90    5.00   0
   5   2  12  288.81    5.49   0
   5  -2  12  279.15    5.82   0
   5  -2  12  308.08    4.65   0
   5   2  12  274.71    4.43   0
 -13   3  12    4.39    2.63   0
 -13   3  12    7.59    3.52   0
  13  -3 -12    5.45    2.33   0
 -13  -3  12    8.86    3.38   0
 -13  -3  12    7.13    3.39   0
 -12   3  12   36.50    3.64   0
 -12   3  12   27.79    2.51   0
 -12  -3  12   31.79    3.48   0
  12   3 -12   26.63    3.29   0
 -12  -3  12   27.87    2.56   0
  12  -3 -12   27.40    2.47   0
 -11   3  12    2.54    2.48   0
  11   3 -12    0.55    2.91   0
 -11   3  12    2.24    3.17   0
 -11  -3  12    3.19    2.27   0
 -11  -3  12    1.31    2.25   0
  11  -3 -12    2.21    3.10   0
 -10   3  12   54.41    2.55   0
 -10  -3  12   50.48    2.45   0
  10   3 -12   49.24    2.36   0
  10  -3 -12   55.44    3.12   0
 -10  -3  12   50.75    2.42   0
   9   3 -12    4.79    2.09   0
  -9   3  12    5.46    3.02   0
  -9  -3  12    2.68    2.96   0
   9  -3 -12    6.30    2.99   0
  -9  -3  12    2.86    2.14   0
  -8   3  12    3.73    2.12   0
   8  -3 -12    5.04    2.10   0
  -8  -3  12    3.25    2.09   0
  -8  -3  12    4.67    1.98   0
   8   3 -12    5.04    2.02   0
  -7   3  12   41.01    2.25   0
   7  -3 -12   38.73    2.22   0
  -7   3  12   43.30    3.20   0
  -7  -3  12   41.54    3.10   0
   7   3 -12   38.55    2.12   0
  -7  -3  12   44.39    2.90   0
   6  -3 -12   14.58    1.95   0
  -6   3  12   14.96    2.10   0
  -6   3  12   14.03    2.12   0
  -6  -3  12   12.59    2.11   0
   6   3 -12   15.89    2.76   0
  -6  -3  12   15.37    2.79   0
   5  -3 -12   11.61    2.65   0
  -5   3  12   13.42    1.93   0
  -5   3  12   10.81    2.95   0
  -5  -3  12   11.44    2.15   0
   5   3 -12    7.76    1.99   0
  -5  -3  12   11.84    2.04   0
   4  -3 -12  185.39    3.55   0
  -4   3  12  190.58    3.63   0
  -4   3  12  189.03    3.95   0
  -4  -3  12  201.11    3.89   0
   4   3 -12  178.36    3.57   0
  -4  -3  12  198.88    3.69   0
   3  -3 -12   21.96    2.88   0
  -3   3  12   19.71    2.86   0
  -3   3  12   19.22    2.22   0
  -3  -3  12   20.57    2.96   0
   3   3 -12   16.73    2.09   0
  -3  -3  12   23.14    2.09   0
   2  -3 -12    4.99    2.72   0
  -2   3  12    1.19    2.72   0
   2   3 -12    2.67    2.15   0
  -2   3  12    3.67    2.92   0
  -2  -3  12    2.74    2.98   0
  -2  -3  12    3.12    1.96   0
   2   3 -12    3.49    2.68   0
  -1   3  12    7.20    2.82   0
   1  -3 -12    6.44    1.94   0
   1   3 -12    6.04    2.92   0
  -1   3  12    6.39    3.00   0
  -1  -3  12    5.22    2.17   0
  -1  -3  12    2.65    2.85   0
   1   3 -12    6.06    1.94   0
   0   3  12   86.59    3.30   0
   0   3 -12   87.66    3.39   0
   0  -3 -12   99.36    3.38   0
   0   3 -12   85.98    2.69   0
   0  -3  12   91.60    2.75   0
   0   3  12   88.86    2.79   0
   0  -3  12   95.87    2.73   0
  -1  -3 -12   38.65    2.41   0
  -1   3 -12   39.81    3.21   0
   1  -3  12   35.77    3.22   0
  -1   3 -12   35.95    3.18   0
   1  -3  12   39.89    3.13   0
   1   3  12   37.30    3.19   0
   1   3  12   35.45    3.14   0
  -2  -3 -12    0.57    2.16   0
  -2  -3 -12    0.01    3.16   0
   2  -3  12    0.29    3.10   0
  -2   3 -12    1.14    2.18   0
   2  -3  12   -0.62    2.14   0
   2   3  12    1.65    2.21   0
  -2   3 -12    0.74    3.02   0
   2   3  12    5.70    2.25   0
   3  -3  12   12.04    3.29   0
  -3  -3 -12   16.11    3.34   0
  -3  -3 -12   13.52    2.33   0
  -3   3 -12   18.49    3.27   0
   3  -3  12   15.48    3.19   0
   3   3  12   11.10    3.31   0
   3   3  12   13.59    3.26   0
   4  -3  12   77.92    4.04   0
  -4  -3 -12   90.46    3.88   0
  -4   3 -12   86.68    2.90   0
  -4  -3 -12   86.89    3.06   0
   4   3  12   84.13    3.76   0
   4  -3  12   87.72    2.80   0
   4   3  12   91.03    3.78   0
   5  -3  12   19.52    3.56   0
  -5  -3 -12   19.81    3.51   0
  -5   3 -12   25.56    3.61   0
   5   3  12   18.32    3.54   0
   5  -3  12   21.47    2.54   0
  -5  -3 -12   24.21    3.64   0
   5  -3  12   17.05    3.53   0
   5   3  12   20.32    3.41   0
 -13   4  12   43.48    3.80   0
 -13   4  12   44.50    3.60   0
 -13  -4  12   33.02    2.66   0
 -13  -4  12   38.25    2.72   0
  13  -4 -12   36.89    3.47   0
 -12   4  12  110.57    3.07   0
 -12   4  12  109.68    3.79   0
 -12  -4  12  101.29    2.97   0
 -12  -4  12  122.97    3.80   0
  12  -4 -12  102.94    2.85   0
 -11   4  12   28.07    2.51   0
 -11   4  12   31.10    3.36   0
 -11  -4  12   28.07    2.36   0
  11   4 -12   30.30    3.14   0
  11  -4 -12   30.19    2.37   0
 -11  -4  12   31.50    3.30   0
 -10   4  12  321.42    4.43   0
 -10   4  12  304.08    4.19   0
 -10  -4  12  288.44    3.58   0
  10  -4 -12  286.46    3.59   0
  10   4 -12  282.32    3.39   0
 -10  -4  12  317.37    3.54   0
  -9   4  12  267.83    4.06   0
   9  -4 -12  260.01    3.33   0
  -9  -4  12  271.01    4.05   0
  -9  -4  12  285.86    4.02   0
   9   4 -12  245.09    3.25   0
  -8   4  12  274.86    3.38   0
   8  -4 -12  289.62    3.97   0
  -8  -4  12  262.04    3.40   0
   8   4 -12  277.94    3.91   0
  -8  -4  12  299.23    4.04   0
   7  -4 -12   40.83    2.24   0
  -7   4  12   44.37    2.24   0
  -7   4  12   44.20    3.21   0
   7   4 -12   39.80    2.17   0
  -7  -4  12   48.76    3.07   0
  -7  -4  12   47.60    2.20   0
   6  -4 -12   21.82    2.04   0
  -6   4  12   25.37    2.88   0
   6   4 -12   20.26    2.04   0
  -6   4  12   21.06    2.19   0
  -6  -4  12   24.10    2.07   0
  -6  -4  12   20.02    2.06   0
   5  -4 -12  169.75    3.35   0
  -5   4  12  166.12    3.53   0
   5   4 -12  167.61    3.38   0
  -5   4  12  163.57    3.77   0
  -5  -4  12  183.21    3.64   0
  -5  -4  12  174.69    2.93   0
   4  -4 -12   33.35    2.96   0
  -4   4  12   33.29    2.24   0
   4   4 -12   32.98    2.92   0
  -4   4  12   34.13    3.15   0
  -4  -4  12   33.73    2.34   0
  -4  -4  12   33.61    2.23   0
  -3   4  12  157.71    2.82   0
   3   4 -12  152.76    2.83   0
   3   4 -12  160.69    3.00   0
  -3   4  12  171.05    3.94   0
  -3  -4  12  181.39    3.73   0
  -3  -4  12  168.44    2.88   0
   3  -4 -12  169.04    2.89   0
  -2   4  12  106.08    3.22   0
   2   4 -12  103.92    2.71   0
   2   4 -12  110.11    3.22   0
  -2   4  12  109.80    3.75   0
  -2  -4  12  125.56    3.49   0
  -2  -4  12  109.85    2.67   0
   2  -4 -12  113.48    3.33   0
  -1   4  12   20.96    2.97   0
   1   4 -12   20.64    3.04   0
  -1   4  12   23.11    2.32   0
   1   4 -12   21.02    2.10   0
  -1  -4  12   22.09    2.97   0
  -1  -4  12   24.49    2.97   0
   1  -4 -12   22.60    2.94   0
   0  -4 -12  151.36    3.57   0
   0   4 -12  149.66    3.63   0
   0   4 -12  159.08    3.61   0
   0   4  12  152.91    3.94   0
   0  -4  12  152.76    2.96   0
   0  -4  12  161.56    3.73   0
   0   4  12  135.33    2.88   0
  -1  -4 -12   22.08    3.05   0
  -1   4 -12   18.72    2.24   0
  -1   4 -12   19.84    2.32   0
   1  -4  12   19.99    3.18   0
   1  -4  12   17.95    3.10   0
   1   4  12   20.03    3.18   0
   1   4  12   16.55    2.24   0
  -2  -4 -12   84.62    3.49   0
  -2   4 -12   81.37    2.73   0
   2  -4  12   76.92    3.58   0
   2  -4  12   79.30    3.36   0
   2   4  12   76.68    3.74   0
   2   4  12   70.89    2.62   0
  -3  -4 -12   39.76    2.58   0
   3  -4  12   41.39    3.54   0
  -3   4 -12   45.02    3.35   0
   3   4  12   37.28    2.51   0
   3  -4  12   44.40    3.27   0
   3   4  12   40.28    3.48   0
   4  -4  12    8.56    3.48   0
  -4  -4 -12   11.46    3.42   0
  -4  -4 -12   10.32    3.44   0
  -4   4 -12   10.00    2.37   0
   4   4  12    9.21    2.44   0
   4  -4  12   12.04    3.32   0
   4   4  12    9.40    3.47   0
   5  -4  12    3.86    4.27   0
  -5  -4 -12    5.64    3.56   0
  -5   4 -12    4.83    3.48   0
   5   4  12    3.09    3.38   0
  -5  -4 -12    5.70    3.46   0
   5  -4  12    6.91    3.33   0
   5  -4  12    4.85    3.30   0
   5   4  12    3.58    3.46   0
 -12   5  12  128.07    3.92   0
 -12   5  12  116.34    3.05   0
 -12  -5  12  117.25    2.98   0
  12  -5 -12  117.90    3.77   0
 -12  -5  12  138.49    3.86   0
 -11   5  12   95.13    2.82   0
 -11   5  12  101.92    2.93   0
 -11  -5  12   94.34    3.58   0
  11  -5 -12   98.13    2.84   0
 -11  -5  12  111.14    3.63   0
 -10   5  12   12.91    3.16   0
 -10   5  12   10.54    3.34   0
  10  -5 -12   11.40    3.07   0
 -10  -5  12   13.51    2.27   0
 -10  -5  12   10.19    3.08   0
  -9   5  12   30.02    2.30   0
  -9   5  12   34.41    3.35   0
   9  -5 -12   32.99    3.11   0
  -9  -5  12   29.20    3.14   0
   9   5 -12   29.39    2.21   0
  -9  -5  12   27.89    3.12   0
   8   5 -12   56.00    3.10   0
  -8  -5  12   54.63    2.35   0
   8  -5 -12   54.07    2.37   0
  -8   5  12   53.01    3.26   0
  -8  -5  12   53.74    3.24   0
   7  -5 -12  105.65    2.61   0
  -7  -5  12  118.83    3.25   0
  -7   5  12  113.72    3.43   0
  -7  -5  12  108.57    3.43   0
   7   5 -12  110.56    3.23   0
  -6  -5  12   40.32    2.92   0
  -6   5  12   34.24    2.24   0
   6   5 -12   34.77    2.86   0
  -6   5  12   40.60    3.22   0
  -6  -5  12   40.73    3.04   0
   6  -5 -12   36.15    2.14   0
  -5  -5  12  278.14    3.87   0
  -5   5  12  245.23    3.24   0
  -5   5  12  250.12    3.68   0
  -5  -5  12  274.80    3.43   0
   5  -5 -12  262.40    3.20   0
   5   5 -12  249.21    3.23   0
   4   5 -12  181.26    2.96   0
  -4  -5  12  199.53    3.05   0
  -4   5  12  192.35    3.57   0
  -4   5  12  190.11    3.49   0
  -4  -5  12  204.14    3.09   0
   4  -5 -12  193.19    3.01   0
  -3   5  12  222.30    3.74   0
   3   5 -12  231.61    3.74   0
   3   5 -12  220.65    3.25   0
  -3   5  12  234.75    4.39   0
  -3  -5  12  250.24    4.06   0
   3  -5 -12  235.41    3.23   0
  -3  -5  12  241.91    3.73   0
   2   5 -12  426.01    4.58   0
  -2   5  12  414.95    4.77   0
  -2  -5  12  452.19    4.61   0
   2   5 -12  406.87    4.50   0
   2  -5 -12  403.82    3.83   0
  -2  -5  12  408.15    4.05   0
  -2   5  12  399.30    4.30   0
   1   5 -12  279.89    3.51   0
  -1   5  12  283.01    4.26   0
  -1  -5  12  282.82    3.39   0
   1   5 -12  272.86    4.07   0
   1  -5 -12  279.10    3.54   0
  -1  -5  12  300.35    4.19   0
  -1   5  12  268.13    3.89   0
   0   5 -12  137.43    3.62   0
   0   5  12  138.39    4.14   0
   0  -5  12  134.12    2.88   0
   0  -5  12  148.69    3.72   0
   0   5  12  126.58    2.85   0
   0  -5 -12  139.73    3.61   0
  -1   5 -12  334.88    3.78   0
   1  -5  12  359.69    4.73   0
   1  -5  12  339.41    3.76   0
   1   5  12  328.58    5.29   0
   1   5  12  326.72    4.48   0
  -1  -5 -12  358.59    4.59   0
  -2   5 -12   93.84    2.81   0
   2  -5  12   96.03    3.74   0
   2  -5  12   94.96    2.73   0
   2   5  12   90.79    2.85   0
   2   5  12   94.41    3.94   0
  -2  -5 -12   99.64    2.87   0
  -3  -5 -12   79.05    3.64   0
   3  -5  12   71.64    3.83   0
  -3   5 -12   74.13    3.69   0
   3   5  12   68.60    3.56   0
   3  -5  12   70.49    2.70   0
   3   5  12   72.85    3.91   0
  -4  -5 -12   62.56    3.70   0
   4  -5  12   55.85    3.85   0
   4  -5  12   56.42    3.82   0
  -4   5 -12   60.97    3.73   0
   4   5  12   56.22    3.68   0
   4  -5  12   58.81    3.47   0
   4   5  12   56.37    3.91   0
 -12   6  12   -1.25    2.48   0
 -12  -6  12    2.70    2.45   0
  12  -6 -12   -0.19    3.25   0
 -12  -6  12    0.37    3.40   0
 -12   6  12    1.97    3.44   0
 -11  -6  12   80.64    3.52   0
 -11   6  12   76.11    2.86   0
  11  -6 -12   71.02    2.71   0
 -11  -6  12   66.44    3.50   0
 -11   6  12   65.82    2.78   0
 -10   6  12   91.46    2.80   0
 -10  -6  12   95.30    2.73   0
 -10   6  12   99.82    2.97   0
  10  -6 -12   97.29    3.39   0
 -10  -6  12   92.44    2.82   0
  -9   6  12  311.06    3.60   0
  -9  -6  12  360.03    4.29   0
   9  -6 -12  332.89    4.25   0
  -9   6  12  334.93    3.86   0
  -9  -6  12  342.45    4.39   0
   8  -6 -12   85.16    2.51   0
  -8   6  12   78.29    2.54   0
  -8  -6  12   85.94    2.55   0
  -8   6  12   76.51    2.74   0
  -8  -6  12   83.41    3.36   0
  -7   6  12   91.10    2.59   0
  -7   6  12   89.74    2.75   0
  -7  -6  12  103.04    3.24   0
  -7  -6  12   96.82    3.46   0
   7  -6 -12   93.66    3.29   0
  -6   6  12   92.01    3.31   0
  -6  -6  12   94.14    2.56   0
  -6   6  12   88.79    3.59   0
  -6  -6  12   91.60    3.35   0
   6   6 -12   86.77    2.42   0
   6  -6 -12   94.34    3.21   0
  -5   6  12   76.58    3.23   0
  -5  -6  12   82.61    3.23   0
  -5   6  12   78.95    3.58   0
  -5  -6  12   84.18    2.52   0
   5  -6 -12   73.60    2.44   0
   5   6 -12   75.31    3.09   0
   4   6 -12  105.66    2.55   0
  -4  -6  12  121.17    2.64   0
  -4   6  12  118.51    3.81   0
  -4  -6  12  124.10    3.49   0
   4  -6 -12  114.46    2.68   0
  -4   6  12  107.08    2.63   0
  -3  -6  12  107.20    2.64   0
   3   6 -12  102.36    3.51   0
  -3   6  12  111.55    3.78   0
  -3  -6  12  118.75    2.76   0
   3  -6 -12  111.46    2.57   0
  -3   6  12  111.48    3.32   0
  -2  -6  12    2.13    2.88   0
   2   6 -12    1.42    2.16   0
  -2   6  12   -0.02    3.10   0
  -2  -6  12    4.33    2.94   0
   2  -6 -12    0.62    2.87   0
  -2   6  12    1.12    2.02   0
   1   6 -12   -0.97    2.29   0
  -1   6  12    2.39    3.00   0
  -1  -6  12    0.89    2.07   0
   1  -6 -12    4.56    2.95   0
  -1   6  12    2.28    2.93   0
  -1  -6  12    1.47    2.98   0
   0   6 -12    6.56    3.11   0
   0   6  12    9.37    3.22   0
   0  -6  12    7.95    3.05   0
   0  -6 -12    9.29    2.13   0
   0   6  12    7.11    2.15   0
   0  -6  12   10.03    3.07   0
  -1   6 -12    2.50    2.23   0
   1  -6  12    1.84    2.21   0
   1   6  12    2.09    3.12   0
   1   6  12    2.78    2.16   0
   1  -6  12    2.92    2.16   0
  -1  -6 -12    4.54    2.13   0
  -2   6 -12   62.32    2.72   0
   2  -6  12   67.86    3.56   0
   2   6  12   57.00    3.52   0
   2  -6  12   62.02    2.57   0
   2   6  12   59.01    3.71   0
  -2  -6 -12   67.84    3.43   0
   3  -6  12  114.08    3.97   0
  -3   6 -12  113.70    3.06   0
   3  -6  12  118.04    4.09   0
   3   6  12   99.99    3.07   0
   3  -6  12  113.59    3.72   0
  -3  -6 -12  121.24    3.85   0
   3   6  12  117.93    5.21   0
  -4  -6 -12   16.46    3.35   0
   4   6  12   16.63    4.47   0
   4  -6  12   15.46    3.54   0
   4  -6  12   15.39    3.54   0
  -4   6 -12   13.49    2.49   0
   4   6  12   15.24    3.35   0
   4  -6  12   19.56    3.28   0
 -12  -7  12  139.76    3.22   0
 -12   7  12  142.89    3.35   0
  12  -7 -12  133.54    3.25   0
 -12  -7  12  135.98    3.19   0
 -12   7  12  151.34    4.15   0
 -11   7  12  174.61    4.15   0
 -11  -7  12  157.86    3.18   0
  11  -7 -12  164.10    3.88   0
 -11  -7  12  149.38    3.13   0
 -11   7  12  157.40    3.22   0
 -10   7  12  342.79    4.66   0
  10  -7 -12  305.72    3.67   0
 -10  -7  12  323.69    3.78   0
 -10  -7  12  330.34    3.90   0
 -10   7  12  306.64    3.78   0
   9  -7 -12   62.02    2.53   0
  -9   7  12   64.99    2.79   0
  -9  -7  12   65.59    3.39   0
  -9  -7  12   70.84    3.46   0
  -9   7  12   61.13    3.47   0
  -8   7  12   15.37    3.41   0
  -8  -7  12   12.95    3.03   0
  -8  -7  12   16.47    3.28   0
   8  -7 -12   13.91    2.13   0
  -8   7  12   12.61    2.31   0
  -7   7  12   42.41    2.58   0
  -7  -7  12   45.77    2.29   0
  -7  -7  12   41.70    2.41   0
   7  -7 -12   42.33    2.39   0
  -7   7  12   43.66    2.35   0
  -6   7  12   31.71    3.34   0
  -6  -7  12   30.04    3.05   0
  -6   7  12   28.68    2.48   0
  -6  -7  12   35.43    2.37   0
   6  -7 -12   25.91    2.27   0
  -6   7  12   28.70    3.05   0
  -5  -7  12  488.26    4.64   0
  -5   7  12  457.50    5.37   0
  -5  -7  12  491.69    4.79   0
   5  -7 -12  452.79    3.93   0
  -5   7  12  460.27    4.51   0
  -4  -7  12  549.14    4.35   0
   4   7 -12  533.88    4.91   0
  -4   7  12  502.23    5.07   0
  -4  -7  12  565.33    4.42   0
   4  -7 -12  543.23    4.28   0
  -4   7  12  510.81    4.25   0
  -3  -7  12  281.37    3.40   0
   3   7 -12  276.04    4.07   0
  -3   7  12  289.39    4.89   0
  -3  -7  12  289.77    3.48   0
   3  -7 -12  276.33    3.48   0
  -3   7  12  264.69    3.99   0
  -2  -7  12 1078.15    5.88   0
   2   7 -12 1020.28    5.64   0
  -2   7  12 1105.51    8.45   0
  -2  -7  12 1118.96    6.33   0
   2  -7 -12 1126.76    6.40   0
  -2   7  12  994.04    5.65   0
  -1  -7  12  789.60    5.71   0
   1   7 -12  712.48    4.92   0
  -1   7  12  747.70    7.45   0
  -1  -7  12  795.68    5.64   0
   1  -7 -12  793.81    5.61   0
  -1   7  12  708.86    5.42   0
   0   7 -12  441.96    4.73   0
   0   7  12  404.73    6.25   0
   0  -7  12  432.11    4.00   0
   0  -7 -12  434.65    4.16   0
   0   7  12  398.83    4.07   0
   0  -7  12  420.79    4.30   0
  -1   7 -12  220.61    4.06   0
   1   7  12  184.82    3.28   0
   1  -7  12  206.55    3.78   0
  -1  -7 -12  216.52    4.06   0
   1   7  12  192.87    5.18   0
   1  -7  12  218.15    4.18   0
   2  -7  12  103.41    3.07   0
  -2   7 -12  117.70    3.70   0
   2   7  12  114.02    3.73   0
   2  -7  12  123.62    3.65   0
  -2  -7 -12  116.51    2.99   0
   2  -7  12  120.93    3.85   0
   2   7  12  107.76    5.45   0
   3   7  12    1.65    5.38   0
   3  -7  12    1.93    3.39   0
  -3   7 -12    1.24    3.50   0
   3   7  12    3.29    3.31   0
   3  -7  12    2.19    3.34   0
   3  -7  12    2.68    2.28   0
  -3  -7 -12    0.58    2.29   0
   4  -7  12   11.09    3.56   0
   4  -7  12   12.13    3.59   0
  -4   7 -12   16.68    3.55   0
   4   7  12   10.22    3.46   0
   4  -7  12   12.30    2.46   0
  -4  -7 -12   13.35    3.42   0
 -11   8  12   50.50    3.74   0
  11  -8 -12   43.34    3.52   0
 -11  -8  12   55.48    3.53   0
 -11  -8  12   45.47    2.65   0
 -11   8  12   43.74    2.69   0
 -10   8  12   97.95    3.85   0
  10  -8 -12   97.94    3.55   0
 -10  -8  12   96.91    3.63   0
 -10  -8  12   94.96    2.91   0
 -10   8  12   86.51    2.87   0
  -9   8  12  305.45    4.01   0
  -9  -8  12  304.34    3.64   0
  -9  -8  12  316.97    3.82   0
  -9   8  12  306.13    4.42   0
   9  -8 -12  317.17    4.37   0
  -8   8  12  290.44    3.86   0
  -8  -8  12  291.54    3.52   0
  -8  -8  12  294.73    3.64   0
   8  -8 -12  291.06    4.09   0
  -8   8  12  264.03    3.41   0
  -7   8  12  375.87    4.90   0
  -7  -8  12  382.89    4.29   0
  -7  -8  12  373.63    3.88   0
   7  -8 -12  378.13    4.29   0
  -7   8  12  340.82    3.76   0
  -6   8  12  222.89    4.29   0
  -6  -8  12  205.81    3.10   0
  -6  -8  12  213.76    3.28   0
   6  -8 -12  207.07    3.69   0
  -6   8  12  202.72    3.83   0
  -5   8  12  308.25    4.80   0
  -5  -8  12  309.52    3.53   0
  -5   8  12  313.86    4.85   0
  -5  -8  12  322.22    3.70   0
   5  -8 -12  322.36    4.13   0
  -5   8  12  304.61    4.12   0
  -4   8  12  280.99    4.78   0
   4   8 -12  291.23    4.18   0
  -4  -8  12  285.23    3.41   0
  -4   8  12  267.08    4.13   0
  -4  -8  12  296.52    4.17   0
   4  -8 -12  303.74    4.08   0
  -4   8  12  258.03    3.36   0
  -3   8  12    5.67    3.32   0
  -3  -8  12    0.36    2.09   0
   3   8 -12   -0.89    2.15   0
  -3   8  12    0.37    3.19   0
  -3  -8  12    1.71    3.00   0
   3  -8 -12    3.41    2.92   0
  -3   8  12    0.37    3.00   0
  -2   8  12    8.80    3.25   0
  -2  -8  12    5.00    3.03   0
   2   8 -12    9.47    3.06   0
  -2   8  12    8.29    3.28   0
   2  -8 -12    7.76    2.12   0
  -2  -8  12   10.80    2.98   0
  -2   8  12    8.22    2.18   0
  -1   8  12    8.54    3.34   0
  -1  -8  12    9.54    2.27   0
   1   8 -12   10.54    3.15   0
  -1   8  12    8.76    3.23   0
   1  -8 -12    5.92    2.24   0
  -1  -8  12    9.64    3.01   0
  -1   8  12    9.04    3.01   0
   0  -8  12  212.73    4.14   0
   0   8  12  191.73    6.06   0
   0   8 -12  208.60    3.32   0
   0  -8 -12  217.52    3.30   0
   0  -8  12  211.28    4.03   0
   0   8  12  208.84    5.98   0
   0   8  12  199.61    3.85   0
   1   8  12  184.15    8.30   0
   1  -8  12  189.57    4.10   0
  -1   8 -12  189.25    3.26   0
  -1  -8 -12  199.97    3.28   0
   1   8  12  177.97    3.88   0
   1  -8  12  204.61    3.88   0
   1   8  12  181.31    8.12   0
   1  -8  12  183.72    3.41   0
   2  -8  12  171.85    4.18   0
  -2   8 -12  186.79    4.05   0
   2   8  12  166.49    4.05   0
  -2  -8 -12  174.53    3.39   0
   2  -8  12  182.44    3.88   0
   2  -8  12  163.90    3.45   0
   3  -8  12  161.83    3.68   0
  -3   8 -12  189.16    4.18   0
   3   8  12  173.20    4.20   0
   3  -8  12  187.09    4.52   0
  -3  -8 -12  185.44    3.55   0
   3  -8  12  198.39    4.07   0
 -11  -9  12  167.98    3.51   0
 -11   9  12  159.65    3.42   0
 -10  -9  12  140.06    3.83   0
 -10  -9  12  144.42    4.05   0
 -10   9  12  125.09    3.07   0
  10  -9 -12  128.30    3.00   0
 -10   9  12  125.29    3.22   0
  -9   9  12   20.68    2.62   0
  -9  -9  12   20.46    2.39   0
  -9  -9  12   16.95    2.51   0
  -9   9  12   16.99    2.38   0
   9  -9 -12   18.19    2.25   0
  -8   9  12    0.75    3.38   0
  -8  -9  12   -1.29    2.18   0
  -8  -9  12    3.58    2.26   0
   8  -9 -12    3.27    3.19   0
  -8   9  12    7.08    2.40   0
  -7   9  12   27.48    3.64   0
  -7  -9  12   31.66    2.34   0
  -7  -9  12   34.54    2.49   0
   7  -9 -12   28.66    2.35   0
  -7   9  12   30.96    2.53   0
  -6   9  12    4.69    2.26   0
  -6  -9  12    5.48    3.02   0
  -6  -9  12    2.14    2.27   0
   6  -9 -12    4.23    2.20   0
  -6   9  12    5.18    3.19   0
  -5   9  12  365.58    4.58   0
  -5   9  12  388.04    5.33   0
  -5  -9  12  386.29    4.43   0
  -5  -9  12  387.92    3.87   0
   5  -9 -12  403.37    4.39   0
  -5   9  12  369.40    4.33   0
  -4   9  12  150.50    4.18   0
   4   9 -12  142.32    3.69   0
  -4   9  12  151.36    4.30   0
  -4  -9  12  144.89    2.87   0
  -4  -9  12  156.94    2.90   0
   4  -9 -12  157.73    2.97   0
  -4   9  12  136.97    2.90   0
  -3   9  12   56.48    3.68   0
   3   9 -12   56.40    2.49   0
  -3  -9  12   58.68    3.36   0
  -3   9  12   54.10    3.72   0
   3  -9 -12   60.67    2.53   0
  -3  -9  12   61.83    3.26   0
  -3   9  12   56.99    3.27   0
  -2   9  12  491.61    6.75   0
  -2  -9  12  470.83    4.32   0
   2   9 -12  458.53    4.17   0
  -2   9  12  491.38    6.67   0
   2  -9 -12  524.85    4.89   0
  -2  -9  12  501.41    4.73   0
  -2   9  12  473.99    4.68   0
  -1   9  12  189.71    5.92   0
  -1  -9  12  201.77    3.92   0
   1   9 -12  188.32    4.02   0
   1  -9 -12  207.02    3.85   0
  -1   9  12  189.64    5.74   0
  -1  -9  12  189.03    3.07   0
  -1   9  12  173.81    3.09   0
   0  -9  12   29.45    3.32   0
   0  -9  12   32.87    2.46   0
   0   9 -12   32.82    2.57   0
   0  -9 -12   38.72    3.26   0
   0   9  12   31.74    2.44   0
   0  -9  12   34.65    2.35   0
   0   9  12   33.47    6.81   0
   0   9  12   30.12    6.41   0
   1  -9  12   55.28    2.75   0
   1  -9  12   54.46    3.64   0
  -1   9 -12   61.55    2.64   0
  -1  -9 -12   60.68    3.52   0
   1   9  12   55.13    3.49   0
   1  -9  12   54.72    2.56   0
   2  -9  12   46.87    2.72   0
  -2   9 -12   62.72    3.71   0
   2   9  12   50.99    3.60   0
  -2  -9 -12   60.69    3.65   0
   2  -9  12   63.19    3.44   0
   2  -9  12   52.49    2.74   0
   3  -9  12    2.52    3.46   0
  -3   9 -12    3.33    3.55   0
   3   9  12    0.68    3.40   0
  -3  -9 -12    4.12    2.46   0
   3  -9  12    8.08    3.38   0
   3  -9  12    1.55    3.41   0
 -10 -10  12  103.48    2.81   0
 -10 -10  12  113.00    3.83   0
 -10 -10  12  122.18    4.10   0
 -10  10  12  115.21    3.86   0
  10 -10 -12  102.64    2.93   0
 -10  10  12  113.56    4.07   0
  -9 -10  12   67.00    2.74   0
  -9 -10  12   74.08    2.82   0
  -9  10  12   65.13    2.72   0
   9 -10 -12   72.24    2.64   0
  -9  10  12   65.90    2.91   0
  -8 -10  12  107.32    2.90   0
  -8 -10  12  117.47    3.02   0
   8 -10 -12  110.26    3.51   0
  -8  10  12  101.26    2.91   0
  -8  10  12  107.36    4.04   0
  -7  10  12  107.73    3.94   0
  -7 -10  12   99.12    2.65   0
  -7 -10  12  106.48    2.91   0
   7 -10 -12  102.11    2.81   0
  -7  10  12   96.93    2.87   0
  -6  10  12   78.89    3.84   0
  -6 -10  12   84.53    2.74   0
  -6 -10  12   80.76    3.47   0
   6 -10 -12   83.79    2.69   0
  -6  10  12   74.68    3.53   0
  -5  10  12   48.30    3.54   0
  -5  10  12   48.32    3.67   0
  -5 -10  12   46.43    3.31   0
  -5 -10  12   46.56    3.42   0
   5 -10 -12   51.28    3.23   0
  -5  10  12   41.49    2.45   0
  -4  10  12   44.08    3.70   0
   4  10 -12   38.40    2.58   0
  -4  10  12   41.96    3.62   0
  -4 -10  12   44.41    2.33   0
   4 -10 -12   40.31    2.42   0
  -4 -10  12   42.04    2.39   0
  -4  10  12   45.84    3.22   0
  -3  10  12  115.25    4.38   0
   3  10 -12  109.42    2.97   0
  -3  10  12  114.84    4.34   0
  -3 -10  12  122.12    3.64   0
   3 -10 -12  123.72    3.71   0
  -3 -10  12  110.82    2.83   0
  -3  10  12  105.10    2.77   0
  -2 -10  12   74.15    2.65   0
   2  10 -12   78.53    2.75   0
  -2 -10  12   85.76    3.49   0
  -2  10  12   81.51    4.10   0
   2 -10 -12   87.46    3.49   0
  -2 -10  12   89.16    3.48   0
  -2  10  12   74.80    2.66   0
  -2  10  12   81.56    4.77   0
  -1 -10  12    1.60    2.19   0
  -1 -10  12   -0.87    2.20   0
   1  10 -12    1.90    2.28   0
   1 -10 -12    2.92    2.99   0
  -1  10  12    1.07    4.56   0
  -1  10  12   -1.98    3.01   0
  -1 -10  12    0.57    2.16   0
  -1  10  12    1.33    4.69   0
   0 -10  12    8.58    3.31   0
   0 -10  12    9.42    3.21   0
   0  10 -12   11.88    2.32   0
   0 -10 -12   11.01    3.14   0
   0  10  12   10.05    3.07   0
   0 -10  12   10.68    3.14   0
   1 -10  12   74.38    3.58   0
   1 -10  12   68.47    2.79   0
  -1  10 -12   67.20    2.85   0
  -1 -10 -12   78.64    3.60   0
   1  10  12   61.03    2.72   0
   1 -10  12   73.30    2.81   0
   2 -10  12   97.28    3.15   0
   2 -10  12   96.60    3.12   0
  -2  10 -12  114.08    3.84   0
   2  10  12  101.80    3.88   0
  -2 -10 -12  117.82    3.98   0
   2 -10  12  102.72    2.94   0
  -9 -11  12    3.76    2.31   0
  -9 -11  12   -0.93    3.43   0
  -9 -11  12    3.71    3.30   0
  -9  11  12    6.15    3.33   0
   9 -11 -12    2.13    3.25   0
  -9  11  12    3.83    3.55   0
  -8 -11  12   10.29    2.22   0
  -8 -11  12   11.34    2.44   0
  -8 -11  12    8.84    3.32   0
   8 -11 -12   12.13    2.45   0
  -8  11  12    9.07    3.47   0
  -8  11  12    9.00    3.52   0
  -7 -11  12    5.35    3.14   0
  -7 -11  12   10.89    3.36   0
  -7 -11  12    8.07    3.29   0
   7 -11 -12    8.04    3.26   0
  -7  11  12    7.89    3.27   0
  -7  11  12    6.01    3.49   0
  -6 -11  12   11.93    3.13   0
  -6 -11  12   12.53    3.33   0
   6 -11 -12   12.11    3.06   0
  -6 -11  12    9.92    2.35   0
  -6  11  12   11.17    2.23   0
  -6  11  12   12.55    3.40   0
  -5 -11  12    8.95    2.21   0
  -5  11  12   11.66    3.50   0
   5 -11 -12    9.24    2.23   0
  -5 -11  12   13.70    3.22   0
  -5 -11  12    8.68    2.24   0
  -5  11  12    9.94    2.29   0
  -5  11  12   10.16    3.49   0
  -4 -11  12   45.98    3.15   0
   4  11 -12   38.59    2.64   0
  -4  11  12   41.17    3.73   0
   4 -11 -12   50.44    3.22   0
  -4 -11  12   45.21    2.55   0
  -4 -11  12   42.90    3.38   0
  -4  11  12   39.33    2.35   0
  -4  11  12   46.29    3.81   0
  -3 -11  12   41.96    3.33   0
   3  11 -12   38.98    3.45   0
  -3  11  12   40.55    3.83   0
   3 -11 -12   46.75    3.40   0
  -3 -11  12   39.68    3.38   0
  -3 -11  12   45.87    3.23   0
  -3  11  12   38.09    3.38   0
  -3  11  12   37.59    3.66   0
  -2 -11  12   19.40    2.35   0
   2  11 -12   18.14    2.54   0
   2 -11 -12   18.11    2.37   0
  -2  11  12   18.00    4.40   0
  -2 -11  12   17.81    3.19   0
  -2  11  12   21.08    3.21   0
  -2 -11  12   16.70    3.05   0
  -2  11  12   19.19    4.33   0
  -1 -11  12   50.82    2.64   0
   1  11 -12   51.95    2.57   0
  -1 -11  12   50.66    2.62   0
   1 -11 -12   53.75    2.65   0
  -1  11  12   46.30    2.58   0
  -1 -11  12   53.69    2.55   0
   0 -11  12   52.91    3.53   0
   0 -11  12   52.63    3.61   0
   0  11 -12   50.82    2.70   0
   0 -11 -12   58.28    2.64   0
   0  11  12   49.28    3.48   0
   0 -11  12   56.28    2.56   0
   1 -11  12   31.51    2.65   0
   1 -11  12   31.50    2.65   0
  -1  11 -12   36.93    3.58   0
  -1 -11 -12   41.16    3.58   0
   1  11  12   29.75    2.59   0
   1 -11  12   37.11    3.43   0
  -8 -12  12   55.42    3.53   0
  -8 -12  12   62.78    3.63   0
  -8 -12  12   49.56    2.63   0
   8 -12 -12   52.58    2.60   0
  -8  12  12   53.70    2.77   0
  -8  12  12   50.55    2.92   0
  -7 -12  12   40.19    2.49   0
  -7 -12  12   48.31    3.61   0
   7 -12 -12   46.58    2.60   0
  -7 -12  12   42.30    2.52   0
  -7  12  12   36.42    2.63   0
  -7  12  12   42.43    2.87   0
  -6 -12  12    1.51    2.23   0
   6 -12 -12    1.17    2.26   0
  -6 -12  12    1.01    3.26   0
  -6  12  12   -0.27    3.29   0
  -6 -12  12    2.60    3.27   0
  -6  12  12    1.84    3.46   0
  -5 -12  12    2.85    3.23   0
  -5  12  12    3.45    3.53   0
   5 -12 -12    4.15    3.19   0
  -5 -12  12    4.53    2.25   0
  -5  12  12    6.06    3.24   0
  -5 -12  12    4.10    3.22   0
  -5  12  12    3.58    3.46   0
  -4 -12  12   19.31    2.35   0
   4  12 -12   19.50    2.58   0
  -4  12  12   17.68    4.50   0
   4 -12 -12   18.63    2.34   0
  -4 -12  12   20.50    2.34   0
  -4  12  12   20.83    3.43   0
  -4 -12  12   20.75    3.44   0
  -4  12  12   18.60    3.70   0
  -3 -12  12   19.18    2.37   0
   3  12 -12   20.74    2.50   0
  -3  12  12   19.64    4.39   0
   3 -12 -12   24.32    3.26   0
  -3  12  12   20.98    2.49   0
  -3 -12  12   22.14    2.53   0
  -3 -12  12   20.16    3.35   0
  -3  12  12   20.52    3.63   0
  -2 -12  12   11.08    3.31   0
   2  12 -12    7.18    2.53   0
   2 -12 -12   11.94    3.29   0
  -2  12  12    9.50    5.49   0
  -2 -12  12   10.09    2.39   0
  -2  12  12    7.81    2.37   0
  -2 -12  12   11.72    3.31   0
  -2  12  12    8.87    5.57   0
  -1 -12  12    0.06    3.32   0
   1  12 -12   -0.40    3.44   0
   1 -12 -12    6.48    3.32   0
  -1 -12  12    2.67    3.27   0
  -1  12  12    2.24    2.28   0
  -1 -12  12   -1.80    2.25   0
   0 -12  12    2.16    3.36   0
   0  12 -12   -2.51    3.45   0
   0 -12  12    2.63    3.39   0
   0 -12 -12   -1.13    3.29   0
   0  12  12    1.03    2.29   0
   0 -12  12    1.31    2.31   0
  -6 -13  12   20.86    3.36   0
   6 -13 -12   23.77    2.61   0
  -6 -13  12   22.72    3.40   0
  -6  13  12   19.55    2.51   0
  -6 -13  12   16.46    3.45   0
  -6  13  12   19.66    3.63   0
  -5 -13  12   28.95    2.45   0
  -5  13  12   30.89    3.75   0
   5 -13 -12   37.36    3.43   0
  -5 -13  12   27.82    2.65   0
  -5  13  12   26.44    3.41   0
  -5 -13  12   29.84    2.52   0
  -5  13  12   32.61    3.63   0
  -4 -13  12   59.09    3.55   0
   4  13 -12   47.88    2.71   0
  -4  13  12   55.00    4.19   0
   4 -13 -12   52.16    2.63   0
  -4  13  12   54.28    2.59   0
  -4 -13  12   64.99    3.68   0
  -4 -13  12   54.53    3.60   0
  -4  13  12   54.14    4.15   0
  -3 -13  12   68.73    3.64   0
   3  13 -12   66.00    2.74   0
   3 -13 -12   72.56    2.78   0
  -3  13  12   70.49    5.17   0
  -3  13  12   64.00    2.74   0
  -3 -13  12   70.81    2.75   0
  -3 -13  12   60.89    2.84   0
  -3  13  12   65.63    4.95   0
  -2 -13  12   69.27    2.78   0
   2  13 -12   65.23    2.87   0
   2 -13 -12   81.45    3.64   0
  -2  13  12   62.50    2.74   0
  -2 -13  12   70.69    2.80   0
  -2 -13  12   68.93    3.72   0
 -13   1  13   31.80    3.60   0
 -13  -1  13   33.83    3.58   0
 -12   1  13  240.86    3.59   0
  12   1 -13  236.26    4.14   0
 -12   1  13  248.40    4.31   0
 -12  -1  13  247.68    4.23   0
  12  -1 -13  232.17    4.11   0
 -12  -1  13  237.92    3.69   0
  11  -1 -13  300.84    4.25   0
 -11   1  13  294.30    3.62   0
 -11  -1  13  277.86    3.56   0
 -11   1  13  302.00    3.72   0
 -11  -1  13  311.09    4.44   0
  11   1 -13  287.19    4.19   0
  10  -1 -13  357.05    3.74   0
 -10   1  13  366.03    3.93   0
 -10  -1  13  362.73    4.50   0
 -10   1  13  387.86    4.51   0
  10   1 -13  351.70    3.69   0
 -10  -1  13  387.59    3.91   0
   9   1 -13 1438.76    6.50   0
  -9   1  13 1508.51    7.23   0
  -9  -1  13 1434.09    6.66   0
  -9   1  13 1537.63    6.74   0
  -9  -1  13 1534.72    6.85   0
   9  -1 -13 1517.53    6.98   0
   8   1 -13  728.35    4.85   0
  -8   1  13  767.70    5.60   0
  -8  -1  13  713.88    4.90   0
  -8   1  13  790.62    5.60   0
  -8  -1  13  824.64    5.64   0
   8  -1 -13  750.87    5.38   0
   7   1 -13  889.40    5.63   0
  -7   1  13  938.67    5.98   0
  -7  -1  13  859.56    5.36   0
  -7   1  13  930.17    5.80   0
  -7  -1  13  965.68    5.83   0
   7  -1 -13  893.41    5.65   0
   6   1 -13 1000.18    5.83   0
  -6   1  13  992.84    5.41   0
  -6   1  13  951.29    5.73   0
  -6  -1  13 1001.67    6.10   0
  -6  -1  13 1020.41    5.98   0
   6  -1 -13  979.63    5.93   0
   5   1 -13  399.19    4.33   0
  -5   1  13  412.38    4.42   0
  -5   1  13  404.72    4.64   0
  -5  -1  13  406.45    4.56   0
   5  -1 -13  379.03    3.73   0
  -5  -1  13  407.43    4.42   0
   4   1 -13    3.78    2.89   0
  -4   1  13    6.31    2.02   0
  -4   1  13    5.90    2.99   0
  -4  -1  13    3.65    2.94   0
  -4  -1  13    8.74    2.95   0
   4  -1 -13    6.62    2.82   0
   3   1 -13   51.44    3.06   0
  -3   1  13   51.09    2.31   0
  -3  -1  13   51.86    2.30   0
  -3   1  13   56.38    3.26   0
  -3  -1  13   60.25    3.30   0
   3  -1 -13   60.99    3.03   0
   2   1 -13   22.53    2.15   0
  -2   1  13   23.17    2.23   0
  -2  -1  13   22.28    3.06   0
   2  -1 -13   22.52    3.02   0
  -2   1  13   21.83    3.12   0
  -2  -1  13   27.01    2.29   0
   1   1 -13  326.89    3.86   0
  -1   1  13  314.02    3.66   0
   1   1 -13  327.10    3.93   0
  -1  -1  13  351.86    4.42   0
   1  -1 -13  336.38    4.44   0
  -1   1  13  365.77    4.73   0
  -1  -1  13  354.73    3.97   0
   0   1  13  204.00    3.30   0
   0   1 -13  222.57    4.09   0
   0  -1  13  208.48    3.37   0
   0   1 -13  204.52    3.48   0
   0  -1 -13  214.26    3.39   0
   0   1  13  226.13    4.17   0
   0  -1  13  225.67    4.20   0
   1   1  13  429.10    4.91   0
   1  -1  13  440.47    5.06   0
  -1  -1 -13  450.68    5.28   0
  -1   1 -13  457.10    5.02   0
  -1   1 -13  433.95    4.57   0
   1   1  13  447.95    5.13   0
   1  -1  13  466.55    4.99   0
  -1  -1 -13  427.17    4.48   0
   2  -1  13  460.18    4.91   0
  -2  -1 -13  491.90    4.99   0
  -2   1 -13  501.98    4.79   0
   2  -1  13  531.09    5.25   0
   2   1  13  506.69    5.42   0
  -2   1 -13  517.20    5.69   0
  -2  -1 -13  528.79    5.68   0
   2   1  13  476.76    5.44   0
   3  -1  13  629.25    6.37   0
  -3  -1 -13  689.20    6.69   0
  -3   1 -13  674.64    6.68   0
  -3  -1 -13  656.49    5.81   0
  -3   1 -13  724.23    6.16   0
   3  -1  13  687.13    5.91   0
   3   1  13  689.86    6.14   0
   3   1  13  659.52    6.39   0
  -4  -1 -13  818.58    7.03   0
  -4   1 -13  799.25    6.65   0
  -4  -1 -13  782.07    7.59   0
   4   1  13  732.67    7.23   0
  -4   1 -13  771.44    7.62   0
   4  -1  13  706.66    5.75   0
   4   1  13  699.47    6.10   0
   4  -1  13  712.45    7.43   0
 -12   2  13    7.70    2.45   0
  12  -2 -13    7.43    3.25   0
 -12   2  13    9.57    2.44   0
 -12  -2  13   10.60    2.38   0
 -12  -2  13    8.58    3.45   0
  12   2 -13    9.61    2.41   0
  11   2 -13   30.58    2.34   0
 -11   2  13   37.95    3.47   0
 -11  -2  13   34.70    3.34   0
 -11  -2  13   32.65    2.49   0
  11  -2 -13   32.24    2.38   0
 -10   2  13   64.34    3.41   0
 -10  -2  13   62.86    2.55   0
 -10  -2  13   72.58    3.39   0
  10  -2 -13   61.46    3.27   0
  10   2 -13   58.75    2.42   0
  -9   2  13   75.55    2.59   0
  -9   2  13   74.84    2.67   0
  -9  -2  13   85.99    3.39   0
  -9  -2  13   90.43    3.52   0
   9  -2 -13   78.66    2.52   0
   9   2 -13   70.75    2.51   0
  -8   2  13   17.78    3.17   0
  -8   2  13   19.57    3.25   0
  -8  -2  13   18.87    3.06   0
   8   2 -13   20.89    2.13   0
   8  -2 -13   19.85    3.02   0
  -8  -2  13   19.87    2.26   0
  -7   2  13  105.82    3.45   0
  -7   2  13   96.03    3.49   0
  -7  -2  13  104.52    3.48   0
   7   2 -13  100.13    3.21   0
   7  -2 -13   92.55    2.54   0
  -7  -2  13  103.59    3.30   0
  -6   2  13  154.72    2.88   0
   6   2 -13  158.53    3.46   0
  -6   2  13  149.57    3.09   0
  -6  -2  13  159.22    3.05   0
   6  -2 -13  165.40    3.48   0
  -6  -2  13  158.56    2.81   0
   5   2 -13   36.28    2.20   0
  -5   2  13   37.59    2.19   0
   5  -2 -13   39.07    2.97   0
  -5   2  13   37.51    3.13   0
  -5  -2  13   39.39    2.38   0
  -5  -2  13   41.81    3.10   0
  -4   2  13    1.92    2.02   0
   4   2 -13   -0.31    2.06   0
   4  -2 -13    4.47    2.76   0
  -4   2  13    2.20    2.98   0
  -4  -2  13    0.31    3.03   0
  -4  -2  13    1.83    2.89   0
  -3   2  13   53.54    2.32   0
   3   2 -13   50.70    2.37   0
   3  -2 -13   52.12    2.33   0
  -3   2  13   52.65    2.50   0
  -3  -2  13   58.70    3.27   0
  -3  -2  13   55.33    2.33   0
  -2   2  13   47.69    3.04   0
   2   2 -13   49.15    3.13   0
   2  -2 -13   44.38    3.08   0
   2   2 -13   47.97    3.04   0
  -2  -2  13   47.37    3.23   0
  -2   2  13   49.51    3.34   0
  -2  -2  13   55.86    3.42   0
  -1   2  13   83.93    3.34   0
   1   2 -13   88.36    3.41   0
   1  -2 -13   83.80    2.62   0
   1   2 -13   84.12    2.59   0
  -1  -2  13   88.55    2.65   0
  -1   2  13   89.72    2.82   0
  -1  -2  13   90.37    2.69   0
   0   2  13    4.09    2.96   0
   0   2 -13    1.32    3.07   0
   0  -2  13    3.66    3.06   0
   0  -2 -13    3.43    2.09   0
   0   2  13    2.15    3.12   0
   0  -2  13    3.50    2.17   0
   0   2 -13    4.74    2.96   0
   1   2  13   50.46    3.35   0
   1  -2  13   53.34    2.55   0
  -1   2 -13   51.40    2.64   0
  -1  -2 -13   57.32    2.57   0
   1  -2  13   56.92    3.37   0
   1   2  13   55.91    3.50   0
  -1   2 -13   57.27    3.37   0
   2  -2  13  109.22    3.84   0
  -2  -2 -13  117.46    3.98   0
  -2   2 -13  109.93    3.02   0
  -2   2 -13  111.01    3.79   0
  -2  -2 -13  118.68    3.92   0
   2  -2  13  113.98    3.69   0
   2   2  13  107.27    3.84   0
   2   2  13   97.15    3.04   0
   3  -2  13    0.93    3.23   0
  -3  -2 -13    1.53    3.41   0
  -3   2 -13    4.39    3.35   0
  -3   2 -13    0.57    3.22   0
   3  -2  13    1.30    2.37   0
  -3  -2 -13    1.74    2.37   0
   3   2  13    1.61    3.25   0
   3   2  13    0.37    3.30   0
  -4  -2 -13    1.81    3.53   0
  -4  -2 -13    0.99    3.48   0
  -4   2 -13    4.45    3.50   0
   4   2  13    2.03    3.47   0
   4  -2  13    3.08    3.39   0
   4   2  13    3.36    3.43   0
   4  -2  13    0.22    3.44   0
 -12   3  13   35.90    2.71   0
 -12   3  13   30.28    2.62   0
 -12  -3  13   33.30    3.51   0
 -12  -3  13   35.80    2.60   0
  12  -3 -13   31.53    2.53   0
  12   3 -13   34.52    3.35   0
 -11   3  13   93.70    2.83   0
 -11   3  13   95.27    3.56   0
 -11  -3  13   91.48    2.76   0
 -11  -3  13  102.40    3.62   0
  11  -3 -13   90.28    2.68   0
  11   3 -13   91.54    2.68   0
 -10   3  13  177.86    3.84   0
 -10  -3  13  174.47    3.81   0
  10   3 -13  162.96    3.61   0
  10  -3 -13  164.09    3.00   0
 -10  -3  13  176.25    3.03   0
   9   3 -13  115.11    3.44   0
  -9   3  13  115.52    2.73   0
  -9   3  13  117.27    3.65   0
  -9  -3  13  114.22    2.76   0
   9  -3 -13  120.23    3.48   0
  -9  -3  13  123.44    2.83   0
  -8   3  13  223.38    3.87   0
  -8   3  13  219.85    4.02   0
   8  -3 -13  212.90    3.17   0
  -8  -3  13  205.47    3.15   0
  -8  -3  13  220.34    3.17   0
   8   3 -13  201.15    3.07   0
  -7   3  13    8.15    2.95   0
   7  -3 -13    8.15    2.10   0
  -7   3  13    9.53    2.97   0
  -7  -3  13    9.02    2.23   0
  -7  -3  13    7.46    2.05   0
   7   3 -13    7.39    2.03   0
  -6   3  13   10.14    2.05   0
   6  -3 -13   12.09    2.82   0
  -6   3  13    8.64    2.18   0
  -6  -3  13    9.30    3.01   0
   6   3 -13   11.93    2.05   0
  -6  -3  13   11.28    2.03   0
  -5   3  13  222.44    3.16   0
   5  -3 -13  229.86    3.73   0
  -5   3  13  226.23    4.14   0
  -5  -3  13  232.11    3.31   0
   5   3 -13  219.76    3.69   0
  -5  -3  13  238.46    3.81   0
  -4   3  13  267.68    4.01   0
   4  -3 -13  273.36    3.98   0
  -4   3  13  267.56    3.69   0
  -4  -3  13  281.00    4.19   0
   4   3 -13  254.19    3.23   0
  -4  -3  13  278.98    3.96   0
  -3   3  13   46.48    2.96   0
   3  -3 -13   41.56    2.95   0
  -3   3  13   43.27    3.27   0
  -3  -3  13   41.11    2.31   0
  -3  -3  13   39.00    2.28   0
   3   3 -13   38.18    2.96   0
  -2   3  13  115.69    2.80   0
   2  -3 -13  127.59    3.45   0
   2   3 -13  127.75    3.59   0
  -2   3  13  122.74    3.73   0
  -2  -3  13  126.46    2.83   0
  -2  -3  13  117.62    2.76   0
   2   3 -13  117.58    3.46   0
  -1   3  13  128.31    2.85   0
   1  -3 -13  142.08    2.86   0
   1   3 -13  146.65    3.67   0
  -1  -3  13  139.97    2.95   0
  -1   3  13  142.92    3.87   0
  -1  -3  13  159.60    3.79   0
   1   3 -13  135.86    2.85   0
   0   3  13  143.61    3.63   0
   0   3 -13  134.67    3.05   0
   0  -3 -13  142.14    3.04   0
   0   3 -13  145.95    3.73   0
   0  -3  13  151.38    3.80   0
   0   3  13  138.10    3.26   0
   0  -3  13  157.87    3.68   0
  -1  -3 -13   32.45    3.20   0
  -1   3 -13   36.08    3.32   0
   1  -3  13   32.17    3.34   0
   1  -3  13   34.58    2.34   0
   1   3  13   37.47    3.30   0
  -1   3 -13   32.48    3.27   0
   1   3  13   30.95    2.37   0
  -2   3 -13   12.67    3.15   0
   2  -3  13   13.17    2.40   0
  -2   3 -13   17.12    3.31   0
  -2  -3 -13   16.79    3.20   0
   2  -3  13   11.70    3.23   0
   2   3  13   15.05    3.31   0
   2   3  13   13.63    2.31   0
   3  -3  13  198.50    4.52   0
  -3  -3 -13  207.56    4.74   0
  -3   3 -13  211.41    3.60   0
  -3  -3 -13  212.28    4.58   0
   3   3  13  182.34    3.65   0
   3  -3  13  220.89    4.21   0
   3   3  13  212.78    4.58   0
   4  -3  13  133.00    4.49   0
  -4  -3 -13  143.70    4.53   0
  -4   3 -13  142.82    3.39   0
   4   3  13  137.58    4.36   0
  -4  -3 -13  137.49    4.58   0
   4  -3  13  135.16    4.01   0
   4   3  13  140.91    4.37   0
 -12   4  13   15.01    3.61   0
 -12   4  13   13.24    2.42   0
 -12  -4  13    8.15    2.39   0
 -12  -4  13   10.60    2.37   0
  12  -4 -13   11.07    2.33   0
 -11   4  13   54.44    2.69   0
 -11   4  13   61.38    3.45   0
 -11  -4  13   60.09    2.71   0
  11   4 -13   61.34    3.38   0
  11  -4 -13   60.12    3.39   0
 -11  -4  13   57.93    2.66   0
 -10   4  13    0.99    3.25   0
 -10   4  13   -1.42    3.00   0
 -10  -4  13    1.86    2.15   0
  10  -4 -13    1.36    2.08   0
  10   4 -13    3.32    2.98   0
 -10  -4  13   -0.32    2.27   0
  -9   4  13   -1.86    2.21   0
   9  -4 -13   -2.06    2.15   0
  -9  -4  13    1.65    3.05   0
  -9  -4  13    0.85    2.98   0
   9   4 -13    0.83    2.89   0
  -8   4  13  158.06    3.73   0
   8  -4 -13  161.04    2.98   0
  -8   4  13  168.89    3.94   0
  -8  -4  13  164.45    3.00   0
   8   4 -13  161.33    2.92   0
  -8  -4  13  162.48    2.91   0
  -7   4  13    4.31    2.08   0
   7  -4 -13    5.24    2.04   0
  -7   4  13    2.77    3.01   0
   7   4 -13    3.75    1.99   0
  -7  -4  13    5.50    3.07   0
  -7  -4  13    5.12    2.91   0
   6  -4 -13  108.04    2.55   0
  -6   4  13  107.74    3.35   0
   6   4 -13  101.91    2.58   0
  -6   4  13  100.63    2.85   0
  -6  -4  13  112.17    2.69   0
  -6  -4  13  118.02    3.36   0
   5  -4 -13   23.97    2.14   0
  -5   4  13   26.95    2.96   0
   5   4 -13   26.44    2.92   0
  -5   4  13   26.71    2.39   0
  -5  -4  13   29.32    3.19   0
  -5  -4  13   25.94    2.21   0
   4  -4 -13   66.60    2.42   0
  -4   4  13   65.23    2.51   0
   4   4 -13   63.54    2.40   0
  -4   4  13   67.47    3.46   0
  -4  -4  13   82.23    3.39   0
  -4  -4  13   67.83    2.46   0
   3  -4 -13    0.19    2.91   0
  -3   4  13    1.22    2.91   0
   3   4 -13    2.27    1.95   0
   3   4 -13    1.69    2.18   0
  -3   4  13   -0.39    3.09   0
  -3  -4  13    1.86    2.14   0
  -3  -4  13    1.61    2.89   0
  -2   4  13   24.20    2.21   0
   2  -4 -13   29.00    3.04   0
   2   4 -13   22.66    3.17   0
   2   4 -13   27.57    2.22   0
  -2   4  13   29.06    3.18   0
  -2  -4  13   24.54    3.12   0
  -2  -4  13   26.93    3.04   0
   1  -4 -13  122.28    2.79   0
   1   4 -13  117.90    3.57   0
  -1   4  13  121.15    3.79   0
  -1  -4  13  126.11    3.52   0
  -1  -4  13  118.35    2.92   0
   1   4 -13  120.36    3.54   0
  -1   4  13  108.90    2.73   0
   0  -4 -13   55.63    2.53   0
   0   4 -13   52.83    2.45   0
   0   4 -13   53.00    2.52   0
   0  -4  13   57.67    3.39   0
   0   4  13   55.87    3.50   0
   0  -4  13   62.07    3.42   0
   0   4  13   55.95    3.31   0
  -1  -4 -13   29.81    3.21   0
  -1   4 -13   27.60    2.48   0
   1  -4  13   32.47    3.30   0
   1  -4  13   35.53    3.24   0
   1   4  13   29.42    3.31   0
   1   4  13   26.36    2.39   0
  -1   4 -13   26.42    2.35   0
  -2  -4 -13   56.39    3.48   0
   2  -4  13   55.88    3.57   0
  -2   4 -13   57.39    2.67   0
   2  -4  13   55.12    3.48   0
   2   4  13   52.21    3.55   0
   2   4  13   51.82    2.72   0
   3  -4  13    1.23    2.39   0
  -3  -4 -13    1.11    2.33   0
  -3   4 -13   -0.62    3.35   0
   3   4  13    0.67    3.33   0
   3  -4  13    2.13    3.25   0
   3   4  13    1.05    3.44   0
   4  -4  13   15.49    3.54   0
  -4   4 -13   19.56    3.55   0
  -4  -4 -13   13.72    3.59   0
   4   4  13   15.76    3.53   0
   4  -4  13   16.74    3.50   0
   4   4  13   15.78    3.56   0
 -12   5  13   68.38    2.87   0
 -12   5  13   70.12    2.93   0
 -12  -5  13   69.25    3.65   0
  12  -5 -13   69.23    2.79   0
 -12  -5  13   68.76    2.73   0
 -11   5  13   86.34    3.59   0
 -11   5  13   81.05    2.89   0
 -11  -5  13   82.01    3.68   0
  11  -5 -13   83.23    3.44   0
 -11  -5  13   90.49    3.66   0
 -10   5  13   48.21    3.37   0
 -10   5  13   44.62    2.63   0
  10  -5 -13   48.13    3.20   0
 -10  -5  13   47.06    3.38   0
  10   5 -13   47.82    2.47   0
 -10  -5  13   49.96    2.56   0
  -9   5  13   92.99    2.58   0
  -9   5  13   98.70    2.87   0
   9  -5 -13   93.70    2.53   0
  -9  -5  13   98.41    3.48   0
   9   5 -13   92.94    3.39   0
  -9  -5  13  102.27    3.50   0
  -8   5  13   27.36    3.22   0
   8  -5 -13   27.19    3.11   0
  -8   5  13   28.60    2.38   0
  -8  -5  13   30.25    3.15   0
   8   5 -13   28.84    2.10   0
  -8  -5  13   24.66    2.21   0
  -7   5  13    3.46    2.17   0
   7  -5 -13    6.59    2.86   0
   7   5 -13    3.36    1.96   0
  -7   5  13   -0.04    3.15   0
  -7  -5  13    3.65    2.10   0
  -7  -5  13    5.46    2.97   0
   6  -5 -13    1.30    2.02   0
  -6   5  13    3.17    2.91   0
   6   5 -13    1.80    2.84   0
  -6   5  13    2.68    3.09   0
  -6  -5  13    1.40    3.04   0
  -6  -5  13    2.58    2.92   0
   5  -5 -13  300.12    4.05   0
  -5   5  13  292.39    4.05   0
  -5   5  13  302.10    4.67   0
  -5  -5  13  294.97    3.60   0
  -5  -5  13  303.72    3.53   0
   5   5 -13  275.30    3.42   0
   4   5 -13  106.60    2.52   0
  -4   5  13   98.97    2.67   0
  -4   5  13  113.21    3.82   0
  -4  -5  13  114.60    3.54   0
  -4  -5  13  118.93    3.55   0
   4  -5 -13  104.03    2.61   0
  -3   5  13   77.52    2.58   0
   3   5 -13   82.55    2.53   0
   3   5 -13   86.44    3.47   0
  -3   5  13   91.19    3.61   0
  -3  -5  13   86.97    2.66   0
  -3  -5  13   86.77    2.58   0
   3  -5 -13   88.32    2.58   0
   2   5 -13  260.63    3.53   0
  -2   5  13  276.60    4.72   0
  -2  -5  13  285.24    4.18   0
   2   5 -13  257.75    3.42   0
  -2  -5  13  280.50    4.16   0
   2  -5 -13  270.88    3.42   0
  -2   5  13  256.52    4.02   0
   1   5 -13   45.16    2.41   0
  -1   5  13   44.44    2.60   0
  -1  -5  13   45.75    2.39   0
  -1  -5  13   44.16    2.46   0
   1   5 -13   46.71    3.26   0
  -1   5  13   38.57    2.28   0
   1  -5 -13   44.79    3.18   0
   0   5 -13   15.64    3.20   0
   0   5  13   14.67    3.23   0
   0  -5  13   17.13    3.19   0
   0  -5  13   14.43    3.08   0
   0   5  13   17.13    3.06   0
   0  -5 -13   15.62    2.17   0
  -1  -5 -13    5.22    3.10   0
  -1   5 -13    2.43    3.17   0
   1  -5  13    3.57    3.15   0
   1  -5  13    4.95    3.26   0
   1   5  13    4.19    3.24   0
   1   5  13    2.74    2.26   0
  -2  -5 -13   81.22    3.71   0
  -2   5 -13   76.29    2.90   0
   2  -5  13   78.51    3.78   0
   2  -5  13   73.57    2.63   0
   2   5  13   70.55    3.69   0
   2   5  13   76.21    4.01   0
  -3  -5 -13    7.91    2.47   0
   3  -5  13    7.82    3.35   0
  -3   5 -13    7.42    3.49   0
   3   5  13    6.55    2.44   0
   3  -5  13    9.44    2.36   0
   3   5  13    7.72    3.44   0
 -11   6  13  135.50    3.86   0
 -11   6  13  131.48    4.08   0
  11  -6 -13  128.77    3.01   0
 -11  -6  13  120.39    3.08   0
 -11  -6  13  138.33    3.79   0
 -10   6  13   42.80    3.49   0
 -10   6  13   48.95    3.50   0
  10  -6 -13   39.20    2.46   0
 -10  -6  13   41.69    3.51   0
 -10  -6  13   39.25    2.42   0
  -9   6  13    0.33    2.28   0
  -9   6  13    0.23    3.38   0
   9  -6 -13    1.74    2.20   0
  -9  -6  13   -0.57    2.33   0
  -9  -6  13    0.06    2.32   0
  -8  -6  13   58.35    2.40   0
  -8   6  13   46.72    2.48   0
   8  -6 -13   54.29    2.39   0
  -8   6  13   60.15    3.57   0
  -8  -6  13   56.08    3.38   0
   7  -6 -13   45.23    2.22   0
  -7   6  13   39.45    2.40   0
  -7  -6  13   44.64    3.13   0
  -7   6  13   43.03    2.54   0
  -7  -6  13   43.95    2.35   0
   7   6 -13   39.02    2.27   0
  -6   6  13   35.28    3.06   0
  -6  -6  13   33.42    3.13   0
  -6   6  13   28.58    2.45   0
  -6  -6  13   31.66    2.38   0
   6   6 -13   32.32    2.97   0
   6  -6 -13   31.20    2.30   0
  -5   6  13  755.71    5.38   0
  -5  -6  13  799.26    5.54   0
  -5   6  13  744.68    5.71   0
  -5  -6  13  782.97    5.08   0
   5   6 -13  743.70    5.34   0
   5  -6 -13  784.72    5.47   0
  -4  -6  13  429.44    4.49   0
   4   6 -13  401.32    4.45   0
  -4   6  13  413.27    5.24   0
  -4  -6  13  420.74    4.02   0
   4  -6 -13  430.61    4.55   0
  -4   6  13  375.91    3.82   0
   3   6 -13  230.19    3.36   0
  -3   6  13  245.93    4.65   0
  -3  -6  13  247.17    3.44   0
   3  -6 -13  247.63    3.28   0
  -3   6  13  225.45    3.17   0
  -3  -6  13  246.98    3.95   0
   2   6 -13  520.97    4.44   0
  -2   6  13  556.82    6.14   0
  -2  -6  13  560.58    4.47   0
   2  -6 -13  557.58    4.46   0
  -2   6  13  539.74    4.90   0
  -2  -6  13  584.52    5.10   0
   1   6 -13  356.43    3.88   0
  -1   6  13  367.22    5.51   0
  -1  -6  13  412.33    4.52   0
   1  -6 -13  378.92    3.92   0
  -1  -6  13  392.44    4.64   0
  -1   6  13  357.35    3.90   0
   0   6 -13  274.77    4.23   0
   0   6  13  260.82    5.10   0
   0  -6  13  264.68    3.51   0
   0  -6  13  271.88    4.36   0
   0   6  13  260.21    4.23   0
   0  -6 -13  285.91    4.36   0
  -1   6 -13   27.91    2.43   0
   1  -6  13   32.44    3.38   0
   1  -6  13   35.40    3.32   0
   1   6  13   29.90    3.26   0
   1   6  13   33.30    4.25   0
  -1  -6 -13   30.38    2.45   0
  -2   6 -13    3.32    2.37   0
   2  -6  13    5.87    3.33   0
   2   6  13    3.19    2.35   0
   2  -6  13    4.84    2.40   0
   2   6  13    4.01    4.06   0
  -2  -6 -13    3.83    3.23   0
  -3  -6 -13   21.16    2.57   0
   3  -6  13   21.03    3.61   0
   3  -6  13   21.31    3.67   0
  -3   6 -13   25.59    2.56   0
   3   6  13   22.83    3.49   0
   3  -6  13   19.19    2.51   0
   3   6  13   23.29    4.52   0
 -11  -7  13   83.83    2.95   0
 -11   7  13  100.16    4.03   0
  11  -7 -13   88.86    3.69   0
 -11  -7  13   86.91    2.91   0
 -11   7  13   84.43    3.80   0
 -10  -7  13  251.66    4.13   0
 -10   7  13  229.16    3.69   0
  10  -7 -13  227.09    4.11   0
 -10  -7  13  248.10    4.37   0
 -10   7  13  234.97    4.17   0
   9  -7 -13  262.64    4.06   0
  -9   7  13  274.97    4.53   0
  -9  -7  13  262.71    4.09   0
  -9  -7  13  248.92    3.56   0
  -9   7  13  243.13    3.35   0
  -8   7  13  426.09    5.01   0
  -8  -7  13  452.14    4.65   0
  -8  -7  13  419.16    4.13   0
   8  -7 -13  407.71    3.93   0
  -8   7  13  407.03    4.66   0
  -7  -7  13  173.68    2.96   0
  -7   7  13  166.13    3.30   0
  -7   7  13  174.09    3.37   0
  -7  -7  13  194.63    3.95   0
   7  -7 -13  174.26    2.97   0
  -7   7  13  163.01    2.99   0
  -6   7  13    5.93    3.22   0
  -6  -7  13    2.81    2.98   0
  -6   7  13    2.97    3.20   0
  -6  -7  13    2.73    3.11   0
   6  -7 -13    0.34    2.91   0
  -6   7  13    0.57    2.99   0
  -5  -7  13   32.97    2.34   0
  -5   7  13   31.74    3.50   0
  -5  -7  13   33.67    3.28   0
   5  -7 -13   31.58    2.28   0
  -5   7  13   32.18    3.12   0
  -4  -7  13    9.67    2.99   0
   4   7 -13   11.77    2.26   0
  -4   7  13   15.42    3.32   0
  -4  -7  13   10.90    2.19   0
   4  -7 -13   10.92    2.13   0
  -4   7  13   14.13    2.13   0
  -3  -7  13   42.49    3.16   0
   3   7 -13   41.90    2.48   0
  -3   7  13   43.90    3.60   0
  -3  -7  13   40.07    2.43   0
   3  -7 -13   45.39    3.15   0
  -3   7  13   37.81    2.42   0
  -2  -7  13   14.57    3.11   0
   2   7 -13   11.41    2.36   0
  -2   7  13   11.79    3.34   0
  -2  -7  13   13.87    2.29   0
   2  -7 -13   10.86    2.25   0
  -2   7  13   11.20    2.18   0
   1   7 -13   27.73    3.32   0
  -1   7  13   30.43    3.42   0
  -1  -7  13   32.51    2.40   0
   1  -7 -13   29.37    2.43   0
  -1   7  13   28.33    2.37   0
  -1  -7  13   32.41    3.25   0
   0   7 -13   12.38    2.31   0
   0  -7  13   11.26    2.25   0
   0   7  13   13.28    3.24   0
   0   7  13   13.13    2.31   0
   0  -7 -13   13.52    3.19   0
   0  -7  13   13.72    3.20   0
  -1   7 -13    8.77    2.36   0
   1   7  13   12.74    2.33   0
   1  -7  13   15.09    3.25   0
   1  -7  13   11.28    2.42   0
   1   7  13   12.64    4.19   0
  -1  -7 -13   12.71    3.12   0
   2  -7  13  178.33    4.30   0
  -2   7 -13  211.14    4.19   0
   2  -7  13  207.25    4.41   0
   2   7  13  185.43    4.20   0
   2  -7  13  210.11    4.07   0
  -2  -7 -13  203.37    4.38   0
   2   7  13  186.92    6.48   0
 -10   8  13   18.68    3.55   0
  10  -8 -13   19.41    2.39   0
 -10  -8  13   19.38    2.38   0
 -10  -8  13   23.74    3.43   0
 -10   8  13   16.82    2.48   0
  -9   8  13   98.91    3.90   0
  -9  -8  13   89.10    2.72   0
  -9  -8  13   88.77    2.87   0
  -9   8  13   81.59    3.56   0
   9  -8 -13   87.47    2.76   0
  -8   8  13  134.10    3.22   0
  -8  -8  13  140.20    2.84   0
  -8  -8  13  141.35    3.11   0
   8  -8 -13  133.10    2.88   0
  -8   8  13  136.02    3.76   0
  -7   8  13   59.62    2.78   0
  -7  -8  13   67.35    3.41   0
  -7  -8  13   67.26    3.49   0
   7  -8 -13   64.60    3.33   0
  -7   8  13   62.67    2.54   0
  -6   8  13  145.94    3.31   0
  -6  -8  13  138.48    2.95   0
  -6   8  13  145.56    4.12   0
  -6  -8  13  141.81    2.99   0
   6  -8 -13  138.18    2.83   0
  -6   8  13  138.54    3.59   0
  -5   8  13  516.80    5.17   0
  -5  -8  13  551.71    4.96   0
  -5   8  13  509.74    5.84   0
  -5  -8  13  543.51    4.48   0
   5  -8 -13  552.57    4.95   0
  -5   8  13  525.50    4.89   0
  -4   8  13  166.26    4.30   0
  -4  -8  13  165.68    2.98   0
   4   8 -13  163.39    3.79   0
  -4   8  13  166.99    4.29   0
  -4  -8  13  189.97    3.82   0
   4  -8 -13  172.10    3.73   0
  -4   8  13  154.02    2.99   0
  -3  -8  13  493.27    4.36   0
  -3   8  13  501.67    6.18   0
   3   8 -13  461.34    4.32   0
  -3   8  13  500.79    6.11   0
  -3  -8  13  510.06    4.27   0
   3  -8 -13  497.37    4.30   0
  -3   8  13  479.48    4.76   0
  -2  -8  13  440.41    4.72   0
   2   8 -13  399.85    3.98   0
  -2   8  13  407.03    6.01   0
  -2  -8  13  418.84    4.67   0
   2  -8 -13  442.36    4.71   0
  -2   8  13  391.02    3.97   0
  -1  -8  13   85.68    3.51   0
   1   8 -13   83.07    3.62   0
  -1   8  13   82.31    4.59   0
  -1  -8  13   90.50    3.54   0
   1  -8 -13   87.57    3.43   0
  -1   8  13   82.20    3.41   0
   0   8 -13  208.72    4.04   0
   0  -8  13  210.32    3.97   0
   0  -8 -13  212.26    3.43   0
   0   8  13  184.54    4.06   0
   0   8  13  194.79    6.08   0
   0  -8  13  212.31    4.23   0
   1   8  13  135.84    7.63   0
   1  -8  13  127.58    3.98   0
  -1   8 -13  135.00    4.04   0
   1   8  13  132.12    3.83   0
   1  -8  13  140.25    3.91   0
  -1  -8 -13  134.34    3.15   0
   1  -8  13  133.50    3.99   0
   1   8  13  128.98    6.90   0
   2  -8  13    2.42    3.28   0
  -2   8 -13    0.29    3.44   0
   2   8  13    1.62    3.36   0
   2  -8  13    0.61    2.36   0
   2  -8  13    4.07    3.37   0
  -2  -8 -13    1.32    3.34   0
  10  -9 -13  191.96    4.11   0
 -10   9  13  194.78    4.34   0
 -10  -9  13  169.08    3.27   0
 -10  -9  13  203.67    4.39   0
 -10   9  13  174.37    3.40   0
  -9   9  13  133.92    4.10   0
  -9  -9  13  124.18    3.03   0
  -9  -9  13  129.52    3.22   0
  -9   9  13  126.73    3.90   0
   9  -9 -13  122.36    2.98   0
  -8   9  13  334.50    4.88   0
  -8  -9  13  303.02    3.70   0
  -8  -9  13  321.08    3.90   0
   8  -9 -13  332.50    4.33   0
  -8   9  13  311.00    4.48   0
  -7   9  13  211.64    3.75   0
  -7  -9  13  219.00    3.87   0
  -7  -9  13  218.94    3.40   0
   7  -9 -13  218.83    3.92   0
  -7   9  13  200.27    4.06   0
  -6   9  13   42.74    3.59   0
  -6  -9  13   40.14    2.48   0
  -6   9  13   36.82    3.62   0
  -6  -9  13   41.18    2.48   0
   6  -9 -13   39.39    2.37   0
  -6   9  13   38.57    2.45   0
  -5   9  13  133.48    4.17   0
  -5  -9  13  129.15    2.91   0
  -5   9  13  128.16    4.18   0
  -5  -9  13  136.36    3.88   0
   5  -9 -13  136.36    3.63   0
  -5   9  13  121.81    2.87   0
  -4   9  13  112.96    4.09   0
  -4  -9  13  110.04    3.60   0
   4   9 -13  109.60    3.80   0
  -4   9  13  109.90    4.11   0
  -4  -9  13  109.88    2.87   0
   4  -9 -13  111.81    3.58   0
  -4   9  13  108.51    3.61   0
  -3   9  13   38.51    4.41   0
  -3  -9  13   40.95    3.23   0
   3   9 -13   37.62    3.38   0
  -3   9  13   39.42    3.71   0
  -3  -9  13   42.68    2.46   0
   3  -9 -13   37.62    3.29   0
  -3   9  13   36.22    3.30   0
  -2   9  13   58.36    3.90   0
  -2  -9  13   58.43    2.65   0
   2   9 -13   52.56    2.55   0
  -2   9  13   59.53    3.82   0
   2  -9 -13   62.13    2.54   0
  -2  -9  13   64.84    3.35   0
  -2   9  13   58.26    3.44   0
  -1   9  13  116.67    5.43   0
  -1  -9  13  114.58    2.98   0
   1   9 -13  112.03    3.87   0
   1  -9 -13  122.83    2.90   0
  -1   9  13  110.45    5.17   0
  -1  -9  13  107.60    2.85   0
  -1   9  13  105.17    2.80   0
   0   9  13   82.21    7.19   0
   0  -9  13   97.11    3.77   0
   0  -9  13   85.69    3.68   0
   0   9 -13   84.53    2.77   0
   0   9  13   81.47    2.78   0
   0  -9 -13   98.80    3.62   0
   0  -9  13   91.96    2.78   0
   0   9  13   90.83    7.58   0
   1  -9  13  141.15    4.19   0
  -1   9 -13  160.16    4.00   0
   1   9  13  132.34    3.89   0
  -1  -9 -13  155.11    3.95   0
   1  -9  13  153.53    3.87   0
   1  -9  13  139.93    4.22   0
  -9 -10  13   73.33    2.70   0
  -9 -10  13   76.30    3.10   0
  -9  10  13   69.24    2.84   0
   9 -10 -13   68.82    2.78   0
  -9  10  13   77.45    3.96   0
  -8  10  13  277.72    4.06   0
  -8 -10  13  281.58    3.64   0
  -8 -10  13  301.21    3.92   0
   8 -10 -13  300.46    4.32   0
  -8  10  13  267.25    3.69   0
  -7  10  13  186.58    3.73   0
  -7 -10  13  211.70    3.96   0
  -7 -10  13  205.53    3.47   0
   7 -10 -13  206.96    4.07   0
  -7  10  13  192.44    4.09   0
  -6  10  13  105.89    3.20   0
  -6  10  13  103.74    3.26   0
  -6 -10  13  108.75    2.82   0
  -6 -10  13  120.86    3.77   0
   6 -10 -13  106.79    2.71   0
  -6  10  13  105.39    2.78   0
  -5  10  13   41.21    3.71   0
  -5  10  13   40.36    3.83   0
  -5 -10  13   35.31    2.52   0
  -5 -10  13   41.31    2.48   0
   5 -10 -13   41.84    3.22   0
  -5  10  13   34.12    2.44   0
  -4  10  13  186.45    4.72   0
   4  10 -13  185.31    3.29   0
  -4 -10  13  201.28    4.11   0
  -4  10  13  188.67    4.76   0
  -4 -10  13  195.06    3.29   0
   4 -10 -13  205.36    3.94   0
  -4  10  13  171.40    3.10   0
  -3  10  13  137.93    5.24   0
  -3 -10  13  139.15    3.82   0
   3  10 -13  127.78    2.97   0
  -3  10  13  145.64    4.68   0
   3 -10 -13  148.71    3.72   0
  -3 -10  13  139.39    3.69   0
  -3  10  13  126.63    2.97   0
  -2 -10  13    3.69    3.24   0
  -2 -10  13    3.33    2.35   0
   2  10 -13    4.69    3.33   0
  -2  10  13    3.88    4.16   0
   2 -10 -13    7.71    3.16   0
  -2 -10  13    6.01    3.25   0
  -2  10  13    4.62    2.33   0
  -2  10  13    4.40    4.18   0
  -1 -10  13    6.52    3.26   0
  -1 -10  13   12.35    3.27   0
   1  10 -13    9.32    2.52   0
   1 -10 -13    7.60    2.34   0
  -1  10  13    9.64    3.27   0
  -1 -10  13    8.31    2.31   0
  -1  10  13    8.20    5.51   0
  -1  10  13    8.28    5.64   0
   0 -10  13   49.84    2.70   0
   0 -10  13   52.76    3.58   0
   0  10 -13   47.02    2.60   0
   0 -10 -13   59.99    3.56   0
   0  10  13   51.50    3.58   0
   0 -10  13   59.74    3.49   0
  -8 -11  13   63.33    2.65   0
  -8 -11  13   72.56    3.63   0
  -8 -11  13   68.64    2.92   0
   8 -11 -13   62.47    2.64   0
  -8  11  13   65.13    3.61   0
  -8  11  13   66.81    3.96   0
  -7 -11  13   57.77    3.44   0
  -7 -11  13   55.79    2.60   0
  -7 -11  13   58.70    2.81   0
   7 -11 -13   55.01    2.69   0
  -7  11  13   53.06    2.71   0
  -7  11  13   53.91    3.92   0
  -6 -11  13    6.32    3.19   0
  -6  11  13    4.96    3.54   0
  -6 -11  13    4.30    3.34   0
  -6 -11  13    3.04    2.32   0
   6 -11 -13    3.40    2.24   0
  -6  11  13    5.34    3.23   0
  -6  11  13    2.29    2.52   0
  -5 -11  13   -0.07    2.32   0
  -5  11  13    0.46    3.58   0
  -5 -11  13    3.72    3.31   0
  -5 -11  13    0.17    3.32   0
   5 -11 -13   -0.17    2.23   0
  -5  11  13    3.24    3.37   0
  -5  11  13    2.52    3.48   0
  -4 -11  13  169.81    3.96   0
   4  11 -13  168.01    3.38   0
  -4  11  13  176.85    4.83   0
  -4 -11  13  170.42    3.24   0
   4 -11 -13  177.70    3.18   0
  -4 -11  13  195.64    4.01   0
  -4  11  13  169.76    4.06   0
  -4  11  13  177.06    4.89   0
  -3 -11  13   24.95    2.41   0
   3  11 -13   23.32    2.53   0
  -3 -11  13   33.00    3.39   0
  -3  11  13   29.42    3.73   0
   3 -11 -13   31.90    2.48   0
  -3 -11  13   34.36    3.48   0
  -3  11  13   23.65    2.50   0
  -3  11  13   28.59    3.71   0
  -2 -11  13   33.81    3.38   0
  -2 -11  13   29.98    2.56   0
   2  11 -13   28.60    3.49   0
   2 -11 -13   38.61    3.56   0
  -2  11  13   31.60    4.61   0
  -2  11  13   27.27    3.49   0
  -2 -11  13   32.56    3.32   0
  -2  11  13   27.57    4.63   0
  -1 -11  13    4.76    3.35   0
  -1 -11  13    4.63    3.39   0
   1  11 -13    4.52    2.46   0
   1 -11 -13    4.81    3.33   0
  -1  11  13    6.66    3.29   0
  -1 -11  13    3.95    2.34   0
  -6 -12  13    5.92    2.38   0
  -6  12  13    4.74    3.68   0
  -6 -12  13    3.04    2.39   0
  -6 -12  13    3.89    2.46   0
   6 -12 -13    9.08    2.40   0
  -6  12  13    5.70    2.38   0
  -6  12  13    2.89    2.52   0
  -5 -12  13  185.26    3.92   0
  -5  12  13  166.42    4.68   0
  -5 -12  13  161.03    3.12   0
   5 -12 -13  192.67    4.00   0
  -5 -12  13  176.12    4.03   0
  -5  12  13  167.47    4.04   0
  -5  12  13  175.86    4.73   0
  -4 -12  13   65.37    3.60   0
   4  12 -13   67.02    2.81   0
  -4  12  13   79.89    4.40   0
  -4 -12  13   73.42    3.63   0
   4 -12 -13   83.60    3.61   0
  -4 -12  13   75.51    2.72   0
  -4  12  13   69.50    2.75   0
  -4  12  13   73.18    4.94   0
  -3 -12  13    6.42    3.26   0
   3  12 -13    6.54    2.47   0
  -3 -12  13    2.44    2.44   0
  -3  12  13    3.24    4.44   0
   3 -12 -13    3.04    3.42   0
  -3  12  13    3.57    3.43   0
  -3 -12  13    6.01    3.33   0
  -3  12  13    1.93    3.54   0
 -12   0  14  130.47    3.98   0
 -12   0  14  145.18    3.99   0
  12   0 -14  127.59    3.76   0
 -11   0  14  189.56    4.09   0
 -11   0  14  187.11    3.26   0
  11   0 -14  180.29    3.16   0
  10   0 -14  345.61    4.38   0
 -10   0  14  366.94    4.63   0
 -10   0  14  354.43    3.97   0
   9   0 -14  424.08    4.53   0
  -9   0  14  442.98    4.73   0
  -9   0  14  463.74    4.84   0
   8   0 -14  119.78    2.70   0
  -8   0  14  122.79    3.72   0
  -8   0  14  120.75    2.76   0
  -7   0  14  505.33    4.89   0
  -7   0  14  492.78    4.20   0
   7   0 -14  490.34    4.72   0
  -6   0  14  328.39    3.79   0
  -6   0  14  353.12    4.30   0
   6   0 -14  340.79    4.22   0
  -5   0  14   38.49    3.20   0
  -5   0  14   34.53    3.25   0
   5   0 -14   43.82    2.37   0
  -4   0  14  966.91    5.48   0
  -4   0  14  969.48    5.89   0
   4   0 -14  987.84    5.98   0
  -3   0  14  200.14    3.82   0
  -3   0  14  203.80    3.35   0
   3   0 -14  199.25    3.80   0
  -2   0  14  195.89    3.19   0
  -2   0  14  212.27    3.51   0
   2   0 -14  199.31    3.19   0
  -1   0  14  729.06    5.18   0
  -1   0  14  780.04    5.56   0
   1   0 -14  793.92    6.04   0
   0   0 -14 1051.09    6.49   0
   0   0  14 1023.24    6.80   0
   0   0 -14 1035.97    6.53   0
   0   0  14 1074.18    6.45   0
   1   0  14  885.96    6.57   0
  -1   0 -14  913.38    6.85   0
  -1   0 -14  885.26    6.17   0
   1   0  14  921.86    6.57   0
   2   0  14   58.80    3.67   0
  -2   0 -14   61.29    2.82   0
  -2   0 -14   60.92    3.69   0
   2   0  14   60.17    3.58   0
  -3   0 -14  137.85    4.25   0
   3   0  14  129.41    4.03   0
  -3   0 -14  132.60    4.44   0
   3   0  14  113.64    4.30   0
  12   1 -14   10.50    2.29   0
 -12   1  14   13.01    2.56   0
 -12   1  14   13.52    3.42   0
 -12  -1  14    9.51    2.44   0
  12  -1 -14   16.50    3.39   0
 -12  -1  14   14.95    2.52   0
  11  -1 -14   70.26    3.44   0
 -11   1  14   74.21    3.63   0
 -11   1  14   72.60    3.53   0
 -11  -1  14   72.99    3.63   0
 -11  -1  14   71.89    3.64   0
  11   1 -14   69.48    3.37   0
  10  -1 -14   68.51    2.45   0
 -10   1  14   69.17    3.57   0
 -10  -1  14   62.31    2.60   0
 -10   1  14   73.59    3.44   0
  10   1 -14   61.12    2.58   0
 -10  -1  14   76.30    3.63   0
   9   1 -14   16.22    2.21   0
  -9   1  14   20.90    3.33   0
  -9   1  14   21.25    2.42   0
  -9  -1  14   18.95    3.32   0
  -9  -1  14   24.28    3.29   0
   9  -1 -14   19.41    2.29   0
   8   1 -14    1.07    2.85   0
  -8   1  14    0.38    2.18   0
  -8   1  14    1.19    3.17   0
  -8  -1  14    2.22    2.23   0
  -8  -1  14    2.01    2.91   0
   8  -1 -14    1.33    2.97   0
   7   1 -14   57.42    3.25   0
  -7   1  14   57.38    2.49   0
  -7   1  14   64.08    3.43   0
  -7  -1  14   58.17    3.34   0
  -7  -1  14   58.77    3.30   0
   7  -1 -14   52.03    2.33   0
   6   1 -14   18.63    3.04   0
  -6   1  14   19.61    3.13   0
  -6   1  14   18.37    2.33   0
  -6  -1  14   21.04    2.37   0
  -6  -1  14   19.72    2.32   0
   6  -1 -14   21.37    3.08   0
   5   1 -14   72.61    2.51   0
  -5   1  14   77.42    3.34   0
  -5   1  14   81.03    3.38   0
  -5  -1  14   76.27    2.65   0
  -5  -1  14   75.23    3.35   0
   5  -1 -14   73.34    2.54   0
   4   1 -14    6.19    2.97   0
  -4   1  14    2.60    2.08   0
  -4  -1  14    3.15    2.06   0
  -4   1  14    1.65    3.14   0
  -4  -1  14    1.03    3.07   0
   4  -1 -14    3.81    3.02   0
   3   1 -14   56.56    2.49   0
  -3   1  14   61.28    3.21   0
  -3  -1  14   65.14    3.33   0
  -3   1  14   65.49    2.67   0
  -3  -1  14   62.65    3.44   0
   3  -1 -14   66.73    3.22   0
   2   1 -14   25.44    3.15   0
  -2   1  14   23.25    2.25   0
  -2  -1  14   23.46    2.41   0
  -2   1  14   25.37    2.41   0
  -2  -1  14   27.27    2.34   0
   2  -1 -14   24.55    2.23   0
  -1   1  14    4.59    2.26   0
   1   1 -14    7.12    2.21   0
   1   1 -14    8.30    2.34   0
  -1  -1  14    5.60    2.24   0
  -1   1  14    7.58    3.16   0
  -1  -1  14    5.54    3.15   0
   1  -1 -14    7.11    2.18   0
   0   1  14   15.04    2.30   0
   0  -1  14   15.11    3.31   0
   0   1 -14   17.80    3.43   0
   0   1 -14   18.87    3.16   0
   0   1  14   14.45    2.43   0
   0  -1  14   18.94    3.30   0
   0  -1 -14   19.22    3.28   0
   1   1  14   31.15    3.37   0
   1  -1  14   26.77    2.55   0
  -1  -1 -14   31.15    2.57   0
  -1   1 -14   31.86    2.58   0
  -1   1 -14   31.07    2.50   0
   1   1  14   29.13    3.44   0
   1  -1  14   30.77    3.49   0
  -1  -1 -14   30.31    3.41   0
  -2   1 -14   16.99    3.43   0
   2  -1  14   19.33    3.37   0
  -2  -1 -14   17.94    3.36   0
  -2  -1 -14   20.23    2.61   0
  -2   1 -14   17.38    3.47   0
   2  -1  14   17.96    2.48   0
   2   1  14   20.04    3.38   0
   2   1  14   17.62    3.37   0
  -3  -1 -14   25.04    3.70   0
  -3   1 -14   26.19    2.70   0
  -3  -1 -14   26.13    3.64   0
  -3   1 -14   22.35    3.73   0
   3  -1  14   24.60    3.53   0
   3   1  14   25.43    2.53   0
   3   1  14   22.88    2.69   0
   3  -1  14   22.76    3.64   0
 -12   2  14  150.52    4.17   0
  12  -2 -14  153.68    3.96   0
 -12   2  14  162.05    4.11   0
 -12   2  14  146.18    3.30   0
 -12  -2  14  148.80    3.16   0
 -12  -2  14  158.80    4.06   0
  12   2 -14  138.72    3.85   0
  11   2 -14  246.59    3.47   0
 -11   2  14  249.24    3.58   0
 -11   2  14  276.05    4.50   0
 -11  -2  14  245.55    3.53   0
 -11  -2  14  261.66    3.61   0
  11  -2 -14  265.94    4.20   0
 -10   2  14  112.65    3.69   0
 -10   2  14  111.06    3.80   0
 -10  -2  14  105.01    2.80   0
 -10  -2  14  110.11    2.82   0
  10  -2 -14  104.14    2.68   0
  10   2 -14  103.12    3.50   0
  -9   2  14   85.29    3.53   0
  -9   2  14   94.27    3.57   0
  -9  -2  14   84.61    2.68   0
  -9  -2  14   96.81    3.54   0
   9   2 -14   81.66    2.54   0
   9  -2 -14   82.82    3.43   0
  -8   2  14   80.93    3.34   0
  -8   2  14   76.65    3.56   0
  -8  -2  14   77.09    2.59   0
  -8  -2  14   78.60    2.60   0
   8   2 -14   76.27    3.21   0
   8  -2 -14   75.61    2.50   0
  -7   2  14  103.22    3.44   0
  -7   2  14  107.10    3.67   0
  -7  -2  14  105.27    2.77   0
   7   2 -14  100.23    2.60   0
   7  -2 -14  107.08    3.37   0
  -7  -2  14  102.27    2.69   0
  -6   2  14  106.30    3.46   0
  -6   2  14  103.55    3.61   0
   6   2 -14  102.65    3.36   0
  -6  -2  14   97.88    2.67   0
   6  -2 -14  103.62    2.59   0
  -6  -2  14  107.60    2.69   0
  -5   2  14    2.95    3.01   0
   5   2 -14    0.75    2.08   0
  -5   2  14    2.36    3.12   0
   5  -2 -14   -0.50    2.09   0
  -5  -2  14   -0.82    2.21   0
  -5  -2  14    2.52    2.11   0
  -4   2  14  203.23    3.11   0
   4   2 -14  203.07    3.14   0
   4  -2 -14  212.54    3.81   0
  -4   2  14  220.30    3.49   0
  -4  -2  14  226.79    4.01   0
  -4  -2  14  211.94    3.19   0
  -3   2  14  396.23    4.43   0
   3   2 -14  391.80    3.90   0
   3  -2 -14  418.60    4.52   0
  -3  -2  14  402.42    3.97   0
  -3   2  14  422.67    4.96   0
  -3  -2  14  413.27    4.21   0
  -2   2  14  497.09    4.28   0
   2  -2 -14  535.86    4.48   0
   2   2 -14  514.22    4.50   0
  -2  -2  14  526.95    4.46   0
  -2   2  14  566.33    5.56   0
  -2  -2  14  547.72    4.58   0
  -1   2  14  172.39    3.79   0
   1   2 -14  181.29    4.00   0
  -1  -2  14  172.24    3.21   0
   1  -2 -14  176.90    3.85   0
  -1   2  14  178.50    3.41   0
  -1  -2  14  189.50    4.06   0
   1   2 -14  176.83    3.90   0
   0   2  14  425.75    4.37   0
   0  -2  14  450.80    5.09   0
   0   2 -14  443.78    4.49   0
   0  -2 -14  450.96    4.46   0
   0   2  14  452.41    5.28   0
   0  -2  14  469.77    4.47   0
   0   2 -14  459.70    5.08   0
  -1   2 -14  336.45    4.33   0
   1  -2  14  328.56    4.16   0
  -1   2 -14  347.79    4.10   0
  -1  -2 -14  357.17    4.33   0
   1  -2  14  379.70    4.72   0
   1   2  14  359.89    4.96   0
   1   2  14  362.17    4.86   0
   2  -2  14    6.85    3.32   0
  -2  -2 -14    7.71    3.50   0
  -2   2 -14    8.67    2.48   0
   2  -2  14    7.75    2.43   0
   2   2  14    5.43    3.35   0
  -2  -2 -14    8.92    3.36   0
  -2   2 -14   10.14    3.32   0
   2   2  14    8.18    3.28   0
  -3   2 -14   15.32    3.55   0
  -3  -2 -14   18.88    3.64   0
   3  -2  14   17.51    3.59   0
  -3  -2 -14   15.06    3.71   0
  -3   2 -14   16.96    2.63   0
   3  -2  14   17.06    2.50   0
   3   2  14   16.94    3.58   0
   3   2  14   18.72    3.47   0
 -12   3  14   94.76    2.96   0
 -12   3  14   89.62    2.91   0
 -12  -3  14   94.62    3.89   0
  12   3 -14   92.21    3.64   0
 -12  -3  14   99.98    3.92   0
  12  -3 -14   81.58    2.85   0
 -11   3  14  101.73    2.95   0
 -11   3  14  103.02    2.95   0
 -11  -3  14   97.99    2.87   0
 -11  -3  14  104.21    2.90   0
  11  -3 -14  104.79    3.69   0
  11   3 -14  104.30    3.61   0
 -10   3  14    3.74    2.15   0
 -10   3  14    5.02    2.40   0
 -10  -3  14    7.33    3.15   0
  10   3 -14    1.24    3.03   0
 -10  -3  14    3.79    2.22   0
  10  -3 -14    3.18    2.10   0
   9   3 -14  317.03    4.14   0
  -9   3  14  325.26    4.37   0
  -9   3  14  333.13    4.47   0
  -9  -3  14  314.10    3.71   0
   9  -3 -14  332.71    4.29   0
  -9  -3  14  338.58    3.75   0
  -8   3  14  134.02    3.60   0
  -8   3  14  131.44    3.01   0
  -8  -3  14  139.57    3.67   0
   8  -3 -14  139.50    3.53   0
  -8  -3  14  143.46    3.71   0
   8   3 -14  126.55    2.70   0
  -7   3  14    0.78    2.91   0
  -7   3  14    3.87    2.27   0
   7  -3 -14   -1.03    2.00   0
  -7  -3  14   -1.18    2.16   0
  -7  -3  14    2.80    2.89   0
   7   3 -14    0.79    2.02   0
  -6   3  14   16.50    2.26   0
   6  -3 -14   19.97    2.92   0
  -6   3  14   16.79    3.21   0
  -6  -3  14   17.38    3.18   0
  -6  -3  14   12.83    3.05   0
   6   3 -14   16.83    2.96   0
  -5   3  14  243.28    4.00   0
   5  -3 -14  245.19    3.90   0
  -5   3  14  232.36    3.56   0
  -5  -3  14  250.27    3.43   0
  -5  -3  14  258.31    4.02   0
   5   3 -14  236.46    3.26   0
  -4   3  14   17.31    2.24   0
   4  -3 -14   18.56    2.18   0
  -4   3  14   20.56    3.28   0
  -4  -3  14   18.43    2.21   0
  -4  -3  14   18.27    3.21   0
   4   3 -14   18.88    2.10   0
  -3   3  14  228.87    3.22   0
   3  -3 -14  239.87    3.30   0
  -3   3  14  239.04    4.42   0
  -3  -3  14  260.13    4.14   0
  -3  -3  14  243.30    3.48   0
   3   3 -14  242.80    3.89   0
  -2   3  14    0.57    3.01   0
   2  -3 -14   -0.71    2.20   0
   2   3 -14    2.82    2.31   0
  -2  -3  14    1.13    3.06   0
  -2   3  14    2.97    3.24   0
  -2  -3  14    0.24    3.05   0
   2   3 -14    1.13    3.01   0
  -1   3  14    1.09    3.04   0
   1   3 -14    2.10    2.07   0
   1  -3 -14   -0.79    2.11   0
   1   3 -14    1.31    3.24   0
  -1  -3  14    2.22    2.18   0
  -1   3  14    0.41    2.27   0
  -1  -3  14    2.01    3.20   0
   0   3 -14   28.46    2.50   0
   0  -3 -14   28.29    2.42   0
   0  -3  14   26.11    3.36   0
   0   3 -14   25.22    2.40   0
   0   3  14   27.92    3.31   0
   0  -3  14   31.16    3.27   0
   0   3  14   26.52    2.39   0
  -1   3 -14  103.93    3.04   0
   1  -3  14  101.09    3.05   0
  -1   3 -14  110.37    3.03   0
  -1  -3 -14  113.33    3.76   0
   1  -3  14  109.61    3.77   0
   1   3  14  110.83    4.01   0
   1   3  14  109.12    3.79   0
  -2   3 -14    1.30    3.23   0
   2  -3  14    3.06    3.24   0
  -2   3 -14    4.79    3.36   0
  -2  -3 -14    0.83    3.30   0
   2  -3  14    3.09    2.36   0
   2   3  14    3.43    3.34   0
   2   3  14    5.98    3.30   0
 -11   4  14   59.56    3.74   0
 -11   4  14   53.39    3.59   0
 -11  -4  14   47.19    3.47   0
  11  -4 -14   58.18    3.40   0
 -11  -4  14   55.78    2.68   0
  11   4 -14   48.34    2.60   0
 -10   4  14    6.24    2.34   0
  10   4 -14    8.57    2.19   0
 -10   4  14    8.88    2.44   0
 -10  -4  14    4.59    2.29   0
  10  -4 -14   11.44    3.21   0
 -10  -4  14    7.63    2.19   0
  -9   4  14    9.16    3.25   0
  -9   4  14   11.21    2.41   0
  -9  -4  14   16.75    3.16   0
   9  -4 -14   13.28    3.14   0
   9   4 -14    9.46    2.20   0
  -9  -4  14    9.47    2.29   0
  -8   4  14   30.52    2.33   0
  -8   4  14   29.38    2.52   0
   8  -4 -14   31.46    3.16   0
  -8  -4  14   31.94    2.40   0
   8   4 -14   30.08    2.30   0
  -8  -4  14   36.22    3.21   0
  -7   4  14   21.39    3.08   0
   7  -4 -14   21.00    3.00   0
   7   4 -14   19.60    2.17   0
  -7   4  14   21.09    2.42   0
  -7  -4  14   26.18    3.14   0
  -7  -4  14   21.37    2.19   0
  -6   4  14   24.29    2.23   0
   6  -4 -14   23.77    2.94   0
   6   4 -14   21.09    3.01   0
  -6   4  14   23.46    2.39   0
  -6  -4  14   25.66    3.13   0
  -6  -4  14   23.25    3.18   0
  -5   4  14  162.85    3.04   0
   5  -4 -14  180.35    3.78   0
   5   4 -14  161.41    2.96   0
  -5   4  14  172.42    3.34   0
  -5  -4  14  178.92    3.10   0
  -5  -4  14  177.66    3.05   0
  -4   4  14  159.56    2.94   0
   4  -4 -14  176.11    3.72   0
   4   4 -14  171.73    3.66   0
  -4   4  14  189.13    4.15   0
  -4  -4  14  182.74    3.12   0
  -4  -4  14  176.48    3.01   0
  -3   4  14  367.67    3.77   0
   3  -4 -14  407.83    4.51   0
   3   4 -14  367.20    3.86   0
  -3   4  14  394.04    4.58   0
  -3  -4  14  430.93    4.65   0
  -3  -4  14  399.19    4.53   0
  -2   4  14  129.61    2.93   0
   2  -4 -14  155.95    3.68   0
   2   4 -14  151.84    3.90   0
  -2   4  14  157.35    4.10   0
  -2  -4  14  161.21    3.14   0
   2   4 -14  143.40    2.92   0
  -2  -4  14  150.72    3.69   0
   1   4 -14  104.39    3.57   0
   1  -4 -14   96.48    2.78   0
   1   4 -14   98.36    3.63   0
  -1  -4  14  111.73    3.57   0
  -1   4  14  107.04    3.81   0
  -1  -4  14  112.90    3.64   0
  -1   4  14   95.09    2.73   0
   0  -4 -14   30.13    2.45   0
   0   4 -14   34.27    3.28   0
   0  -4  14   29.76    2.55   0
   0   4  14   30.96    3.41   0
   0  -4  14   35.00    3.24   0
   0   4 -14   33.78    2.45   0
   0   4  14   26.79    2.40   0
  -1  -4 -14    7.38    2.28   0
  -1   4 -14   12.71    3.42   0
   1  -4  14    6.85    2.36   0
  -1   4 -14    9.06    2.34   0
   1  -4  14   10.38    2.39   0
   1   4  14    8.46    3.40   0
   1   4  14    9.11    2.35   0
   2  -4  14    2.31    3.44   0
  -2  -4 -14    2.15    2.39   0
  -2   4 -14    2.87    2.33   0
   2  -4  14   -0.37    2.40   0
   2   4  14    0.90    2.36   0
   2   4  14    1.91    3.27   0
 -11   5  14   35.08    3.70   0
 -11   5  14   35.69    3.64   0
 -11  -5  14   27.02    2.58   0
  11  -5 -14   35.40    3.42   0
 -11  -5  14   28.56    2.45   0
 -10   5  14   14.18    3.44   0
 -10   5  14   16.96    3.50   0
  10  -5 -14   14.83    2.28   0
 -10  -5  14   15.99    3.36   0
  10   5 -14   19.99    3.21   0
 -10  -5  14   16.35    2.46   0
  -9   5  14   80.29    2.69   0
   9  -5 -14   79.34    3.44   0
  -9   5  14   87.42    3.69   0
  -9  -5  14   78.48    2.66   0
  -9  -5  14   87.58    2.59   0
   9   5 -14   80.84    2.61   0
  -8   5  14  230.36    3.33   0
   8  -5 -14  239.39    3.96   0
  -8   5  14  239.84    4.24   0
  -8  -5  14  253.39    4.05   0
   8   5 -14  225.84    3.17   0
  -8  -5  14  255.05    4.04   0
  -7   5  14   30.24    3.20   0
   7  -5 -14   28.85    3.19   0
   7   5 -14   24.18    2.17   0
  -7   5  14   26.78    3.26   0
  -7  -5  14   25.88    2.36   0
  -7  -5  14   25.03    2.27   0
  -6   5  14  154.62    2.96   0
   6  -5 -14  159.35    2.89   0
   6   5 -14  159.41    3.64   0
  -6   5  14  159.86    3.99   0
  -6  -5  14  162.26    3.08   0
  -6  -5  14  165.20    3.66   0
  -5   5  14  169.12    3.02   0
   5  -5 -14  173.94    3.01   0
  -5   5  14  191.17    4.23   0
  -5  -5  14  192.64    3.95   0
  -5  -5  14  177.67    3.05   0
   5   5 -14  168.16    2.93   0
  -4   5  14  109.13    3.54   0
   4  -5 -14  109.56    3.40   0
   4   5 -14  101.57    3.39   0
  -4   5  14  111.87    3.84   0
  -4  -5  14  116.43    2.87   0
  -4  -5  14  105.54    2.71   0
  -3   5  14   38.56    3.11   0
   3  -5 -14   35.08    2.27   0
   3   5 -14   35.72    3.38   0
  -3   5  14   39.11    3.50   0
  -3  -5  14   41.09    2.47   0
   3   5 -14   31.12    3.09   0
  -3  -5  14   38.62    3.24   0
   2  -5 -14   38.76    2.40   0
   2   5 -14   34.34    3.17   0
   2   5 -14   32.19    2.40   0
  -2   5  14   38.04    3.40   0
  -2  -5  14   40.28    3.30   0
  -2  -5  14   37.22    3.29   0
  -2   5  14   31.64    2.38   0
   1  -5 -14   46.78    3.24   0
   1   5 -14   48.05    3.37   0
   1   5 -14   43.01    3.26   0
  -1   5  14   43.62    3.50   0
  -1  -5  14   44.26    2.45   0
  -1  -5  14   43.84    2.55   0
  -1   5  14   41.25    2.46   0
   0  -5 -14   10.79    3.20   0
   0   5 -14    7.66    2.40   0
   0  -5  14    6.80    2.33   0
   0   5  14    9.87    3.31   0
   0  -5  14    9.27    3.26   0
   0   5  14    7.76    3.08   0
  -1  -5 -14   45.87    2.67   0
  -1   5 -14   50.37    3.50   0
   1  -5  14   47.43    3.56   0
   1  -5  14   48.62    2.64   0
   1   5  14   45.30    3.69   0
   1   5  14   44.44    3.55   0
  -2  -5 -14   72.42    3.78   0
   2  -5  14   69.53    3.85   0
  -2   5 -14   65.17    2.87   0
   2   5  14   69.01    3.76   0
   2  -5  14   76.42    3.70   0
   2   5  14   65.95    4.00   0
 -11   6  14   53.19    2.76   0
 -11   6  14   53.84    2.89   0
  11  -6 -14   49.25    2.69   0
 -11  -6  14   60.33    2.85   0
 -11  -6  14   62.84    3.60   0
 -10   6  14   15.89    3.40   0
 -10   6  14   16.56    2.53   0
  10  -6 -14   19.35    2.42   0
 -10  -6  14   17.77    2.51   0
 -10  -6  14   22.69    3.30   0
  -9   6  14    0.69    2.25   0
  -9   6  14    4.52    2.35   0
   9  -6 -14    0.11    2.21   0
  -9   6  14    2.60    2.45   0
  -9  -6  14   -0.14    2.33   0
  -9  -6  14    0.93    3.18   0
  -8   6  14   -1.71    2.24   0
   8  -6 -14    3.80    3.04   0
  -8   6  14    0.41    2.40   0
  -8   6  14    1.21    3.35   0
  -8  -6  14    0.33    2.22   0
  -8  -6  14    3.61    2.98   0
  -7   6  14   14.74    2.28   0
   7  -6 -14   16.25    2.22   0
  -7   6  14   14.43    3.33   0
  -7  -6  14   13.62    3.18   0
   7   6 -14   12.61    2.26   0
  -7  -6  14   14.74    3.16   0
  -6   6  14  101.85    2.79   0
   6  -6 -14  117.33    3.49   0
  -6   6  14  117.19    3.85   0
  -6  -6  14  124.37    3.73   0
   6   6 -14  109.88    3.49   0
  -6  -6  14  118.41    3.57   0
   5  -6 -14  338.32    4.38   0
  -5   6  14  341.76    4.94   0
  -5  -6  14  356.90    4.44   0
   5   6 -14  317.99    4.29   0
  -5  -6  14  322.45    3.62   0
  -5   6  14  311.90    3.69   0
   4   6 -14  106.07    3.50   0
  -4   6  14  113.98    4.00   0
  -4  -6  14  102.59    2.89   0
  -4  -6  14  110.09    2.72   0
   4  -6 -14  109.55    3.43   0
  -4   6  14  105.11    3.50   0
   3   6 -14  139.76    3.79   0
  -3   6  14  128.07    3.32   0
  -3  -6  14  132.30    2.98   0
  -3  -6  14  139.17    3.68   0
  -3   6  14  130.17    3.54   0
   3  -6 -14  129.82    2.89   0
   2   6 -14   84.41    3.74   0
  -2   6  14   90.43    3.88   0
  -2  -6  14   81.75    2.68   0
  -2  -6  14   78.11    2.72   0
  -2   6  14   77.56    2.67   0
   2  -6 -14   84.91    2.70   0
   1   6 -14  134.20    3.04   0
  -1   6  14  127.69    3.43   0
  -1  -6  14  150.43    2.96   0
  -1  -6  14  147.56    3.88   0
  -1   6  14  132.57    3.08   0
   1  -6 -14  153.99    3.83   0
   0  -6 -14   61.98    3.53   0
   0   6 -14   57.14    2.78   0
   0  -6  14   62.03    3.60   0
   0  -6  14   65.14    3.55   0
   0   6  14   59.94    3.87   0
   0   6  14   56.37    2.68   0
  -1  -6 -14   85.62    3.71   0
  -1   6 -14   81.70    3.75   0
   1  -6  14   81.04    3.80   0
   1  -6  14   82.19    3.66   0
   1   6  14   72.30    2.78   0
   1   6  14   73.17    4.06   0
  -2  -6 -14   46.14    3.64   0
  -2   6 -14   35.50    2.76   0
   2  -6  14   35.75    2.69   0
 -10   7  14    6.32    3.51   0
  10  -7 -14    4.24    3.32   0
 -10  -7  14    1.12    2.35   0
 -10  -7  14    4.62    2.36   0
 -10   7  14    3.43    2.44   0
  -9   7  14    5.57    2.44   0
   9  -7 -14    4.67    2.24   0
  -9  -7  14    9.49    3.47   0
  -9   7  14   12.73    3.30   0
  -9  -7  14    7.16    2.41   0
  -8  -7  14  184.70    3.07   0
   8  -7 -14  178.75    3.10   0
  -8   7  14  195.33    4.23   0
  -8   7  14  171.50    3.40   0
  -8  -7  14  184.02    4.06   0
  -8   7  14  170.87    3.96   0
   7  -7 -14  210.63    3.86   0
  -7  -7  14  211.67    3.30   0
  -7   7  14  201.95    3.57   0
  -7   7  14  210.81    4.29   0
  -7  -7  14  215.60    3.24   0
  -7   7  14  195.39    3.20   0
  -6  -7  14  332.63    3.69   0
  -6   7  14  335.11    4.93   0
  -6  -7  14  344.35    3.69   0
   6  -7 -14  343.03    3.63   0
  -6   7  14  313.46    3.55   0
  -5  -7  14  386.84    4.50   0
  -5   7  14  377.66    5.25   0
  -5  -7  14  373.82    3.95   0
   5  -7 -14  377.97    4.47   0
  -5   7  14  333.00    3.73   0
  -4   7  14  127.95    3.35   0
  -4  -7  14  136.82    3.04   0
   4  -7 -14  134.16    2.90   0
  -4   7  14  125.45    3.65   0
  -4  -7  14  127.48    2.90   0
   3   7 -14  314.21    4.45   0
  -3   7  14  315.41    5.15   0
  -3  -7  14  321.79    3.75   0
  -3   7  14  288.66    3.57   0
   3  -7 -14  331.51    4.37   0
  -3  -7  14  334.79    4.34   0
   2   7 -14   71.17    3.65   0
  -2   7  14   73.39    3.86   0
  -2  -7  14   79.24    3.59   0
  -2   7  14   63.02    3.50   0
   2  -7 -14   74.31    3.43   0
  -2  -7  14   64.43    2.61   0
   1   7 -14   80.60    3.59   0
  -1   7  14   70.76    3.93   0
  -1  -7  14   84.45    3.55   0
  -1   7  14   81.97    3.65   0
  -1  -7  14   76.79    3.57   0
   1  -7 -14   84.79    3.57   0
   0   7 -14  109.21    3.88   0
   0  -7  14  120.82    3.72   0
   0   7  14  105.40    4.96   0
   0  -7  14  106.40    3.86   0
   0   7  14  100.64    3.67   0
   0  -7 -14  108.90    3.74   0
  -1   7 -14    1.19    3.44   0
   1  -7  14   -1.67    3.39   0
   1   7  14    3.13    3.36   0
   1  -7  14    5.65    3.29   0
   1   7  14   -0.13    4.26   0
  -1  -7 -14    3.49    3.35   0
 -10  -8  14  103.25    3.85   0
 -10  -8  14  105.51    3.96   0
 -10   8  14   99.04    3.01   0
   9  -8 -14   23.64    2.45   0
  -9   8  14   22.94    2.68   0
  -9  -8  14   30.19    3.29   0
  -9  -8  14   22.69    2.46   0
  -9   8  14   27.56    3.46   0
  -8   8  14  316.79    4.83   0
  -8  -8  14  293.90    3.65   0
  -8   8  14  299.70    4.15   0
  -8  -8  14  321.36    3.89   0
  -8   8  14  318.36    4.51   0
   8  -8 -14  307.91    3.74   0
  -7   8  14   78.75    3.83   0
  -7  -8  14   81.33    3.57   0
  -7   8  14   73.99    3.81   0
  -7  -8  14   76.62    3.69   0
  -7   8  14   66.07    2.65   0
   7  -8 -14   67.76    2.59   0
  -6   8  14   53.03    3.68   0
  -6  -8  14   55.35    3.38   0
  -6   8  14   54.29    3.78   0
  -6  -8  14   53.68    2.58   0
   6  -8 -14   57.73    3.22   0
  -6   8  14   48.55    3.33   0
  -5  -8  14    1.34    2.19   0
  -5   8  14    2.43    3.35   0
  -5   8  14    0.24    3.41   0
  -5  -8  14    2.36    2.28   0
   5  -8 -14    4.18    2.93   0
  -5   8  14    3.62    3.26   0
  -4  -8  14    2.21    3.17   0
  -4   8  14    1.32    2.40   0
  -4   8  14    1.77    3.29   0
  -4  -8  14    0.60    3.13   0
   4  -8 -14    3.60    3.06   0
  -4   8  14    1.39    2.28   0
  -3  -8  14   24.41    2.30   0
   3   8 -14   21.40    3.36   0
  -3   8  14   27.26    3.57   0
  -3  -8  14   26.85    3.48   0
   3  -8 -14   26.52    2.33   0
  -3   8  14   22.11    2.26   0
   2   8 -14  415.89    4.20   0
  -2   8  14  465.10    6.50   0
  -2  -8  14  475.60    4.89   0
  -2   8  14  415.12    4.15   0
   2  -8 -14  466.96    4.26   0
  -2  -8  14  478.35    4.98   0
   1   8 -14   84.97    3.74   0
  -1   8  14   88.08    4.79   0
  -1  -8  14   92.35    2.79   0
  -1   8  14   79.12    2.82   0
   1  -8 -14   91.67    2.83   0
  -1  -8  14   85.29    3.67   0
   0   8 -14   92.34    2.93   0
   0  -8  14   96.70    2.84   0
   0   8  14   89.70    2.93   0
   0   8  14   99.91    5.40   0
   0  -8  14  101.88    3.75   0
   0  -8 -14  107.14    3.00   0
  -9   9  14  138.99    3.43   0
  -9  -9  14  162.44    4.09   0
  -9  -9  14  152.10    3.24   0
  -9   9  14  141.61    3.12   0
   9  -9 -14  135.67    3.13   0
  -8   9  14  273.19    4.81   0
  -8  -9  14  256.36    3.52   0
  -8   9  14  264.28    4.79   0
  -8  -9  14  284.47    3.79   0
  -8   9  14  249.21    3.61   0
   8  -9 -14  253.47    3.51   0
  -7   9  14   72.22    3.88   0
  -7  -9  14   81.20    3.59   0
  -7   9  14   74.97    3.92   0
  -7  -9  14   68.98    2.82   0
   7  -9 -14   71.12    2.58   0
  -7   9  14   69.65    3.57   0
  -6   9  14   47.98    2.86   0
  -6  -9  14   61.05    3.44   0
  -6   9  14   54.56    3.87   0
  -6  -9  14   64.01    3.62   0
   6  -9 -14   62.52    3.40   0
  -6   9  14   48.68    2.64   0
  -5   9  14  168.37    4.56   0
  -5  -9  14  180.52    3.87   0
  -5   9  14  183.80    4.57   0
  -5  -9  14  201.00    4.04   0
   5  -9 -14  185.37    3.17   0
  -5   9  14  161.77    3.15   0
  -4   9  14  106.09    4.13   0
  -4  -9  14  119.79    3.70   0
   4   9 -14  100.34    2.89   0
  -4   9  14  104.57    4.08   0
  -4  -9  14  113.57    3.71   0
   4  -9 -14  105.45    3.57   0
  -4   9  14  104.55    3.74   0
  -3   9  14    2.27    3.50   0
  -3  -9  14    3.88    3.21   0
   3   9 -14    2.64    2.49   0
  -3   9  14    0.30    3.49   0
  -3  -9  14    1.59    3.27   0
   3  -9 -14    3.11    2.20   0
  -3   9  14    3.92    3.27   0
  -2  -9  14    2.46    2.28   0
  -2   9  14    2.46    3.47   0
   2   9 -14    0.96    3.36   0
  -2   9  14    2.27    3.38   0
  -2  -9  14    3.31    2.25   0
   2  -9 -14    0.78    3.23   0
  -2   9  14    2.99    3.24   0
  -1   9  14    7.67    4.39   0
   1   9 -14    7.04    3.47   0
  -1  -9  14    6.57    3.37   0
  -1   9  14    6.61    4.32   0
  -1   9  14    3.94    2.47   0
   1  -9 -14    8.58    2.46   0
  -1  -9  14    6.00    3.38   0
   0   9 -14   39.73    3.61   0
   0  -9  14   39.81    2.71   0
   0  -9 -14   49.41    3.56   0
  -7  10  14  123.14    4.20   0
  -7 -10  14  126.46    3.83   0
  -7  10  14  109.15    3.37   0
  -7 -10  14  122.50    3.06   0
  -7  10  14  114.69    3.04   0
   7 -10 -14  107.98    2.88   0
  -6  10  14   30.21    3.67   0
  -6 -10  14   35.42    3.45   0
  -6  10  14   33.71    3.81   0
  -6 -10  14   29.67    2.53   0
   6 -10 -14   36.45    3.24   0
  -6  10  14   26.09    3.36   0
  -5  10  14    2.08    3.56   0
  -5 -10  14    2.84    3.34   0
  -5  10  14   -0.94    3.38   0
  -5 -10  14    2.40    2.32   0
   5 -10 -14    4.47    3.20   0
  -5  10  14    6.50    3.21   0
  -4  10  14   37.16    3.77   0
  -4 -10  14   39.03    3.41   0
   4  10 -14   33.73    3.58   0
  -4  10  14   35.52    3.82   0
  -4 -10  14   37.98    3.55   0
   4 -10 -14   41.41    3.45   0
  -4  10  14   33.16    2.50   0
  -3  10  14   21.49    3.85   0
  -3 -10  14   24.41    3.45   0
   3  10 -14   24.32    3.45   0
  -3  10  14   24.40    3.67   0
  -3 -10  14   27.39    3.35   0
   3 -10 -14   25.13    2.47   0
  -3  10  14   20.92    2.52   0
  -2  10  14    5.22    4.41   0
  -2 -10  14    5.63    2.38   0
  -2 -10  14    7.10    3.38   0
   2  10 -14    5.56    2.47   0
  -2  10  14    4.39    4.29   0
  -2 -10  14    6.00    2.35   0
   2 -10 -14    6.46    2.33   0
  -2  10  14    3.74    2.34   0
  -5 -11  14   18.19    3.37   0
  -5 -11  14   20.15    2.44   0
  -5  11  14   18.29    3.77   0
  -5 -11  14   19.28    2.53   0
   5 -11 -14   18.15    2.43   0
  -5  11  14   21.47    2.42   0
  -5  11  14   20.87    3.75   0
  -4 -11  14    6.99    2.33   0
  -4 -11  14   11.43    3.35   0
   4  11 -14    7.28    2.70   0
  -4  11  14    7.57    4.41   0
  -4 -11  14    7.80    2.34   0
   4 -11 -14   12.25    2.40   0
  -4  11  14   10.65    3.37   0
  -4  11  14    9.45    3.67   0
  11  -1 -15   68.56    2.71   0
 -11   1  15   82.96    3.84   0
 -11   1  15   77.06    2.75   0
 -11  -1  15   69.65    2.73   0
 -11  -1  15   74.98    2.94   0
  11   1 -15   72.74    3.60   0
  10  -1 -15  143.44    2.93   0
 -10   1  15  149.32    3.94   0
 -10   1  15  166.24    4.02   0
 -10  -1  15  139.41    3.12   0
 -10  -1  15  154.00    3.27   0
  10   1 -15  146.32    3.71   0
  -9   1  15    8.87    2.25   0
  -9   1  15   10.14    2.42   0
  -9  -1  15    8.00    2.36   0
   9   1 -15   12.00    2.99   0
  -9  -1  15   12.71    3.20   0
   9  -1 -15    8.56    2.27   0
   8   1 -15   66.64    3.31   0
  -8   1  15   60.27    2.54   0
  -8   1  15   63.45    3.55   0
  -8  -1  15   62.10    3.49   0
  -8  -1  15   66.33    2.57   0
   8  -1 -15   63.40    3.31   0
   7   1 -15   22.88    2.33   0
  -7   1  15   24.44    3.26   0
  -7   1  15   26.09    3.31   0
  -7  -1  15   26.54    3.24   0
  -7  -1  15   29.34    3.22   0
   7  -1 -15   27.04    2.30   0
   6   1 -15   11.26    2.99   0
  -6   1  15    4.47    2.25   0
  -6   1  15    9.44    2.22   0
  -6  -1  15    7.70    3.18   0
  -6  -1  15    4.80    2.30   0
   6  -1 -15    5.94    2.16   0
   5   1 -15  166.22    3.07   0
  -5   1  15  170.19    3.10   0
  -5  -1  15  175.84    3.05   0
  -5   1  15  180.93    4.03   0
  -5  -1  15  190.54    3.97   0
   5  -1 -15  181.64    3.71   0
   4   1 -15  255.84    3.46   0
  -4   1  15  266.07    4.09   0
  -4  -1  15  288.77    4.23   0
  -4   1  15  282.93    3.74   0
  -4  -1  15  273.71    3.73   0
   4  -1 -15  277.68    4.08   0
   3   1 -15  437.05    4.71   0
  -3   1  15  439.96    4.67   0
  -3  -1  15  416.53    4.04   0
  -3   1  15  474.99    5.20   0
  -3  -1  15  463.86    4.96   0
   3  -1 -15  436.69    4.66   0
  -2   1  15  544.88    4.58   0
   2   1 -15  573.32    5.31   0
  -2  -1  15  595.16    5.39   0
  -2   1  15  587.28    5.03   0
  -2  -1  15  610.12    5.51   0
   2  -1 -15  582.75    5.35   0
  -1   1  15  384.33    4.07   0
  -1  -1  15  423.83    4.92   0
   1   1 -15  439.66    4.97   0
  -1   1  15  451.07    5.20   0
  -1  -1  15  437.46    4.37   0
   1  -1 -15  436.77    4.93   0
   0   1  15  637.49    5.31   0
   0  -1  15  703.73    5.94   0
   0   1 -15  685.12    6.12   0
   0   1 -15  706.75    6.12   0
   0   1  15  719.45    6.14   0
   0  -1  15  725.22    5.95   0
   0  -1 -15  657.88    5.48   0
   1   1  15  102.55    3.92   0
  -1  -1 -15  106.76    4.01   0
   1  -1  15   91.43    3.91   0
  -1   1 -15   98.03    3.15   0
   1  -1  15   99.40    3.02   0
   1   1  15   96.86    3.14   0
  -1   1 -15  106.36    3.99   0
  11   2 -15   13.06    3.38   0
 -11   2  15   13.66    2.40   0
 -11   2  15   11.66    2.41   0
 -11  -2  15   12.33    2.40   0
 -11  -2  15   13.28    3.46   0
  11  -2 -15   14.85    2.29   0
 -10   2  15   53.44    2.59   0
 -10   2  15   55.76    3.55   0
 -10  -2  15   55.68    3.51   0
 -10  -2  15   51.85    2.72   0
  10  -2 -15   53.92    3.40   0
  10   2 -15   53.30    2.62   0
  -9   2  15   20.90    2.41   0
  -9   2  15   18.31    3.32   0
  -9  -2  15   12.17    2.33   0
  -9  -2  15   17.44    2.46   0
   9   2 -15   13.36    2.29   0
   9  -2 -15   14.80    2.28   0
  -8   2  15   -1.98    2.22   0
  -8   2  15   -0.55    2.24   0
  -8  -2  15    5.08    3.30   0
  -8  -2  15    0.42    2.15   0
   8   2 -15    0.67    2.10   0
   8  -2 -15    1.04    2.13   0
  -7   2  15   16.66    2.36   0
  -7   2  15   23.03    2.33   0
  -7  -2  15   20.74    3.35   0
   7   2 -15   19.33    2.23   0
  -7  -2  15   16.67    2.43   0
   7  -2 -15   19.99    2.22   0
  -6   2  15    5.08    2.26   0
  -6   2  15    4.80    3.21   0
   6   2 -15    4.79    2.24   0
  -6  -2  15    6.44    3.18   0
  -6  -2  15    4.09    3.23   0
   6  -2 -15    2.86    2.19   0
  -5   2  15   48.44    2.37   0
   5   2 -15   44.56    2.48   0
  -5   2  15   47.26    2.59   0
  -5  -2  15   49.55    3.45   0
  -5  -2  15   53.53    3.27   0
   5  -2 -15   44.25    2.44   0
  -4   2  15  336.66    4.29   0
   4   2 -15  313.35    3.70   0
  -4  -2  15  315.79    3.76   0
  -4   2  15  324.83    4.09   0
  -4  -2  15  359.01    4.56   0
   4  -2 -15  313.89    3.58   0
  -3   2  15   66.50    3.43   0
  -3  -2  15   68.59    3.47   0
   3   2 -15   68.61    3.31   0
  -3   2  15   73.25    3.63   0
   3  -2 -15   65.23    2.55   0
  -3  -2  15   70.15    2.75   0
  -2   2  15  210.13    3.37   0
  -2  -2  15  223.21    3.51   0
  -2   2  15  243.37    4.47   0
   2  -2 -15  231.93    4.12   0
  -2  -2  15  243.57    4.20   0
   2   2 -15  231.90    4.09   0
  -1   2  15  168.39    3.23   0
   1   2 -15  194.22    4.21   0
  -1  -2  15  177.59    3.34   0
  -1   2  15  186.16    3.45   0
  -1  -2  15  186.10    3.39   0
   1  -2 -15  198.15    4.06   0
   1   2 -15  167.27    3.30   0
   0   2  15   24.40    3.41   0
   0  -2  15   26.46    3.43   0
   0   2 -15   28.59    3.54   0
   0   2  15   25.06    3.40   0
   0  -2  15   26.08    2.57   0
   0  -2 -15   27.04    2.50   0
   0   2 -15   24.88    2.51   0
   1  -2  15   94.49    3.15   0
  -1   2 -15  110.58    4.02   0
  -1   2 -15   99.12    3.19   0
   1  -2  15  100.37    3.04   0
   1   2  15  104.11    4.10   0
  -1  -2 -15  106.27    3.15   0
   1   2  15   90.64    3.06   0
 -11   3  15    3.92    3.41   0
 -11   3  15    1.80    3.50   0
 -11  -3  15    4.14    2.45   0
 -11  -3  15    1.47    3.34   0
  11   3 -15    2.56    2.39   0
  11  -3 -15    1.72    2.31   0
 -10   3  15    5.29    3.36   0
  10   3 -15    5.95    2.22   0
 -10   3  15    6.22    2.37   0
 -10  -3  15    2.51    3.27   0
 -10  -3  15    8.45    3.35   0
  10  -3 -15    1.48    3.29   0
   9   3 -15   66.45    3.44   0
  -9   3  15   73.20    3.49   0
  -9   3  15   62.92    3.64   0
  -9  -3  15   70.58    3.67   0
   9  -3 -15   65.26    3.37   0
  -9  -3  15   69.47    2.56   0
   8   3 -15  164.55    3.64   0
  -8   3  15  171.09    3.83   0
  -8   3  15  163.65    3.16   0
  -8  -3  15  181.59    3.97   0
   8  -3 -15  163.79    2.99   0
  -8  -3  15  167.74    2.98   0
  -7   3  15   86.61    3.48   0
  -7   3  15   93.58    3.68   0
  -7  -3  15   93.64    3.65   0
   7  -3 -15   87.89    3.35   0
  -7  -3  15   90.54    2.80   0
   7   3 -15   95.59    3.55   0
  -6   3  15  169.51    3.77   0
  -6   3  15  164.61    3.23   0
   6  -3 -15  174.02    3.71   0
  -6  -3  15  182.10    3.87   0
  -6  -3  15  164.72    3.10   0
   6   3 -15  153.06    3.00   0
  -5   3  15  228.82    3.95   0
   5  -3 -15  219.79    3.20   0
  -5   3  15  242.06    4.41   0
  -5  -3  15  231.92    3.40   0
  -5  -3  15  226.39    3.38   0
   5   3 -15  213.21    3.14   0
  -4   3  15  544.70    4.40   0
   4  -3 -15  562.79    5.08   0
  -4   3  15  572.49    5.10   0
  -4  -3  15  576.17    4.69   0
  -4  -3  15  606.90    5.15   0
   4   3 -15  532.57    4.49   0
  -3   3  15  425.06    4.09   0
   3  -3 -15  464.91    4.79   0
  -3  -3  15  454.44    4.25   0
  -3   3  15  470.61    5.38   0
  -3  -3  15  504.64    5.02   0
   3   3 -15  449.17    4.74   0
  -2   3  15  120.10    3.69   0
   2   3 -15  128.72    3.77   0
   2  -3 -15  119.75    2.97   0
  -2  -3  15  143.57    3.80   0
  -2   3  15  133.18    4.04   0
  -2  -3  15  130.34    3.03   0
  -1   3  15   16.60    2.36   0
   1   3 -15   25.04    3.50   0
   1   3 -15   19.47    3.28   0
  -1  -3  15   20.43    3.31   0
   1  -3 -15   18.52    3.29   0
  -1   3  15   20.00    3.42   0
  -1  -3  15   20.54    3.39   0
   0  -3  15  120.74    3.17   0
   0   3 -15  138.04    3.93   0
   0  -3 -15  126.20    3.09   0
   0   3  15  136.48    4.10   0
   0  -3  15  135.50    3.88   0
   0   3 -15  129.26    3.91   0
   0   3  15  131.78    3.87   0
   1  -3  15  100.88    3.93   0
  -1   3 -15   96.82    3.10   0
  -1  -3 -15   98.34    3.12   0
   1  -3  15  107.31    3.82   0
   1   3  15   88.31    3.28   0
  -1   3 -15  105.21    3.98   0
   1   3  15   96.82    3.86   0
 -11   4  15   22.36    2.59   0
 -11   4  15   28.22    3.64   0
 -11   4  15   25.45    2.71   0
 -11  -4  15   23.91    3.53   0
 -11  -4  15   24.26    2.51   0
  11  -4 -15   20.18    2.33   0
  11   4 -15   22.46    3.28   0
 -10   4  15  119.69    3.83   0
  10   4 -15  111.09    3.57   0
 -10   4  15  111.97    3.91   0
 -10  -4  15  105.08    3.01   0
  10  -4 -15  102.49    2.77   0
 -10  -4  15  109.28    3.02   0
  -9   4  15   83.11    2.82   0
  -9   4  15   81.34    2.83   0
  -9  -4  15   93.13    3.68   0
   9  -4 -15   81.91    2.70   0
  -9  -4  15   80.79    2.70   0
   9   4 -15   79.13    2.72   0
  -8   4  15   -0.47    2.24   0
  -8   4  15    2.74    3.34   0
   8  -4 -15    3.75    2.24   0
  -8  -4  15    5.56    2.27   0
   8   4 -15    3.61    2.20   0
  -8  -4  15    1.70    2.21   0
  -7   4  15   61.01    3.33   0
   7  -4 -15   62.01    3.18   0
  -7   4  15   53.82    2.72   0
  -7  -4  15   59.03    3.45   0
   7   4 -15   57.58    3.38   0
  -7  -4  15   58.66    2.62   0
  -6   4  15  135.14    2.99   0
   6  -4 -15  140.86    3.73   0
   6   4 -15  129.18    2.88   0
  -6   4  15  137.09    3.94   0
  -6  -4  15  149.85    3.86   0
  -6  -4  15  144.22    3.03   0
  -5   4  15   47.63    3.36   0
   5  -4 -15   46.50    3.36   0
   5   4 -15   45.38    3.08   0
  -5   4  15   52.41    3.58   0
  -5  -4  15   50.52    2.52   0
  -5  -4  15   45.59    2.40   0
  -4   4  15    6.72    2.16   0
   4  -4 -15    6.21    2.12   0
   4   4 -15    3.83    2.23   0
  -4   4  15    7.30    2.41   0
  -4  -4  15   10.29    2.36   0
  -4  -4  15    6.32    2.34   0
  -3   4  15   11.84    2.35   0
   3  -4 -15   12.59    2.32   0
  -3   4  15   13.67    3.37   0
  -3  -4  15   10.37    2.30   0
   3   4 -15   10.77    2.18   0
  -3  -4  15   13.23    2.39   0
  -2   4  15   66.80    3.36   0
   2  -4 -15   68.76    3.40   0
   2   4 -15   60.87    2.71   0
  -2  -4  15   66.18    2.71   0
  -2   4  15   63.10    3.64   0
  -2  -4  15   61.58    2.69   0
   2   4 -15   63.60    2.63   0
   1  -4 -15   42.03    2.57   0
   1   4 -15   39.91    3.35   0
   1   4 -15   42.24    2.75   0
  -1  -4  15   37.77    2.62   0
  -1   4  15   43.42    3.60   0
  -1  -4  15   44.51    3.43   0
  -1   4  15   45.47    3.39   0
   0   4 -15   30.34    2.57   0
   0   4 -15   30.80    2.63   0
   0  -4 -15   35.17    3.42   0
   0  -4  15   34.52    3.47   0
   0  -4  15   31.07    2.54   0
   0   4  15   29.73    3.52   0
   0   4  15   27.79    2.50   0
   1  -4  15   31.47    3.60   0
  -1   4 -15   28.42    3.66   0
  -1  -4 -15   31.49    3.51   0
   1  -4  15   28.85    2.62   0
   1   4  15   26.64    3.69   0
   1   4  15   28.27    3.51   0
 -10   5  15   43.11    2.59   0
 -10   5  15   60.78    3.84   0
 -10   5  15   42.06    2.82   0
  10  -5 -15   41.85    2.50   0
 -10  -5  15   48.67    3.55   0
  10   5 -15   44.60    2.59   0
 -10  -5  15   41.95    2.59   0
   9   5 -15   68.52    2.58   0
  -9   5  15   78.94    3.63   0
  -9   5  15   80.55    2.88   0
   9  -5 -15   79.69    2.68   0
  -9  -5  15   75.20    2.79   0
  -9  -5  15   86.45    3.50   0
  -8   5  15  166.19    3.94   0
   8  -5 -15  169.84    3.12   0
  -8   5  15  183.21    4.21   0
  -8  -5  15  188.79    3.20   0
   8   5 -15  165.52    3.04   0
  -8  -5  15  180.23    3.10   0
  -7   5  15  194.80    3.27   0
   7  -5 -15  213.98    3.85   0
   7   5 -15  194.33    3.13   0
  -7   5  15  220.73    4.27   0
  -7  -5  15  209.37    3.28   0
  -7  -5  15  205.85    3.23   0
  -6   5  15  106.34    2.77   0
   6  -5 -15  112.50    3.60   0
   6   5 -15  111.14    3.54   0
  -6   5  15  113.96    3.92   0
  -6  -5  15  113.59    3.75   0
  -6  -5  15  111.64    2.77   0
  -5   5  15   12.08    2.26   0
   5  -5 -15   16.79    3.11   0
   5   5 -15   14.35    3.08   0
  -5   5  15   13.90    3.46   0
  -5  -5  15   13.42    2.49   0
  -5  -5  15   13.56    2.37   0
  -4   5  15   35.86    3.35   0
   4  -5 -15   30.71    2.32   0
   4   5 -15   32.09    2.43   0
  -4   5  15   36.25    3.51   0
  -4  -5  15   34.42    3.39   0
  -4  -5  15   36.67    2.37   0
   3  -5 -15  159.77    3.15   0
  -3   5  15  160.81    3.49   0
  -3  -5  15  164.94    3.75   0
   3   5 -15  148.59    2.99   0
  -3  -5  15  155.33    3.79   0
  -3   5  15  151.80    3.77   0
   2  -5 -15   78.75    3.56   0
   2   5 -15   79.24    3.77   0
  -2   5  15   86.93    3.81   0
  -2  -5  15   90.45    3.69   0
  -2  -5  15   78.03    2.75   0
   2   5 -15   74.70    3.44   0
  -2   5  15   75.72    2.69   0
   1  -5 -15   58.78    2.67   0
   1   5 -15   60.10    3.67   0
  -1  -5  15   63.19    3.62   0
  -1   5  15   62.06    3.74   0
  -1  -5  15   71.27    3.65   0
  -1   5  15   57.19    2.70   0
   0  -5 -15    2.46    2.38   0
   0   5 -15    2.97    3.34   0
   0  -5  15    3.05    2.30   0
   0  -5  15    2.68    2.33   0
   0   5  15    3.10    3.28   0
   0   5  15    0.70    3.33   0
 -10   6  15   23.41    3.54   0
 -10   6  15   21.23    3.59   0
 -10   6  15   24.61    3.64   0
  10  -6 -15   22.03    3.25   0
 -10  -6  15   21.13    2.61   0
 -10  -6  15   23.43    3.40   0
  -9   6  15   95.90    3.69   0
  -9   6  15   95.47    3.07   0
   9  -6 -15   97.52    3.55   0
  -9   6  15   96.25    3.87   0
  -9  -6  15   98.58    3.82   0
  -9  -6  15   92.86    2.80   0
  -8   6  15   49.48    3.42   0
   8  -6 -15   56.38    3.48   0
  -8   6  15   49.49    2.76   0
  -8  -6  15   62.66    3.58   0
  -8  -6  15   61.75    3.46   0
  -7   6  15  148.22    3.03   0
   7  -6 -15  156.87    3.08   0
  -7   6  15  172.32    4.17   0
  -7  -6  15  171.66    3.14   0
   7   6 -15  150.19    3.04   0
  -7  -6  15  160.87    3.08   0
  -6   6  15  240.19    4.01   0
   6  -6 -15  247.79    3.39   0
  -6   6  15  264.34    4.61   0
  -6  -6  15  257.90    3.47   0
   6   6 -15  236.95    4.02   0
  -6  -6  15  262.28    4.10   0
   5  -6 -15  165.02    3.06   0
  -5   6  15  174.88    4.31   0
  -5  -6  15  172.00    3.15   0
  -5  -6  15  165.32    3.10   0
   5   6 -15  169.37    3.75   0
  -5   6  15  152.24    3.14   0
   4  -6 -15  452.49    4.75   0
   4   6 -15  396.46    4.04   0
  -4   6  15  438.91    5.54   0
  -4  -6  15  473.46    4.83   0
  -4  -6  15  411.41    4.03   0
  -4   6  15  425.14    4.68   0
   3  -6 -15  123.79    3.03   0
   3   6 -15  115.79    2.99   0
  -3   6  15  118.28    4.17   0
  -3  -6  15  126.60    2.93   0
  -3  -6  15  120.97    2.93   0
  -3   6  15  115.97    3.69   0
   2  -6 -15    2.41    3.13   0
   2   6 -15   -2.50    3.40   0
  -2   6  15    0.83    2.35   0
  -2  -6  15    1.17    2.48   0
  -2  -6  15   -0.47    2.33   0
  -2   6  15    3.16    3.07   0
   1  -6 -15   13.11    2.40   0
   1   6 -15   11.02    3.41   0
  -1  -6  15   12.23    3.36   0
  -1   6  15   12.66    3.44   0
  -1  -6  15   16.75    2.40   0
  -1   6  15   13.45    3.31   0
   0  -6 -15    2.95    2.40   0
   0   6 -15    0.67    3.54   0
   0  -6  15    1.13    3.43   0
   0  -6  15    1.27    2.46   0
   0   6  15    2.23    3.35   0
   0   6  15    2.03    2.39   0
  -9   7  15   46.50    3.73   0
   9  -7 -15   49.47    2.51   0
  -9   7  15   54.08    3.77   0
  -9  -7  15   50.67    2.70   0
  -9  -7  15   59.05    3.58   0
  -9   7  15   46.64    2.70   0
   8  -7 -15    0.93    2.32   0
  -8   7  15    1.85    3.49   0
  -8   7  15    5.53    2.42   0
  -8  -7  15    2.01    2.43   0
  -8  -7  15    2.97    2.24   0
  -8   7  15    3.77    2.26   0
   7  -7 -15    1.54    3.17   0
  -7   7  15    2.60    2.49   0
  -7   7  15    2.73    3.45   0
  -7  -7  15   -0.42    3.30   0
  -7  -7  15    2.14    2.26   0
  -7   7  15    1.77    3.23   0
   6  -7 -15    1.72    3.19   0
  -6   7  15    2.66    3.49   0
  -6  -7  15    2.56    2.40   0
  -6  -7  15    3.82    2.28   0
  -6   7  15    3.08    2.34   0
   5  -7 -15   26.11    3.38   0
  -5   7  15   29.81    2.66   0
  -5  -7  15   30.46    2.57   0
  -5   7  15   26.62    3.35   0
  -5  -7  15   33.01    3.48   0
  -4   7  15    6.68    3.52   0
  -4  -7  15    8.10    3.34   0
  -4  -7  15    9.35    3.39   0
  -4   7  15    7.13    2.23   0
   4  -7 -15    7.44    2.34   0
   3   7 -15  163.55    3.39   0
  -3   7  15  184.41    4.64   0
  -3  -7  15  190.91    4.22   0
  -3  -7  15  181.63    3.35   0
  -3   7  15  160.12    3.11   0
   3  -7 -15  199.39    4.07   0
   2   7 -15  140.54    4.02   0
  -2   7  15  132.11    4.27   0
  -2  -7  15  152.99    3.93   0
  -2  -7  15  126.37    3.06   0
  -2   7  15  119.02    2.96   0
   2  -7 -15  148.31    3.85   0
   1   7 -15  144.37    4.09   0
  -1   7  15  138.51    4.52   0
  -1  -7  15  136.78    3.20   0
  -1  -7  15  151.18    4.01   0
  -1   7  15  124.59    3.15   0
   1  -7 -15  140.78    3.17   0
   8  -8 -15   38.80    2.59   0
  -8   8  15   40.36    3.74   0
  -8   8  15   34.91    2.76   0
  -8  -8  15   43.64    3.70   0
  -8   8  15   46.91    3.63   0
  -8  -8  15   36.39    2.54   0
   7  -8 -15  178.96    3.90   0
  -7  -8  15  185.08    4.00   0
  -7   8  15  167.77    4.41   0
  -7   8  15  165.54    4.40   0
  -7  -8  15  180.44    4.09   0
  -7   8  15  145.77    3.07   0
  -6  -8  15  220.36    4.18   0
  -6   8  15  219.20    4.71   0
  -6   8  15  214.25    3.93   0
  -6  -8  15  249.97    4.29   0
  -6   8  15  208.49    4.05   0
   6  -8 -15  227.03    3.32   0
  -5   8  15   77.34    3.01   0
  -5   8  15   77.22    4.00   0
  -5  -8  15   83.83    2.90   0
  -5   8  15   73.41    2.84   0
   5  -8 -15   80.85    2.71   0
  -5  -8  15   81.12    3.67   0
  -4   8  15   44.93    3.94   0
  -4   8  15   48.00    3.90   0
  -4  -8  15   42.58    2.61   0
  -4   8  15   45.38    3.54   0
   4  -8 -15   51.74    3.42   0
  -4  -8  15   43.15    2.60   0
   3   8 -15   11.60    2.56   0
  -3   8  15    8.86    3.47   0
  -3  -8  15    7.02    3.29   0
  -3   8  15    7.37    3.33   0
   3  -8 -15    6.62    2.27   0
  -3  -8  15   10.56    3.41   0
   2   8 -15    1.64    2.49   0
  -2   8  15    2.55    3.39   0
  -2  -8  15    1.93    2.35   0
  -2   8  15    0.90    3.36   0
  -2  -8  15    3.35    3.30   0
   2  -8 -15    4.69    2.30   0
  -7   9  15    8.43    3.65   0
  -7  -9  15    8.07    3.40   0
  -7   9  15    6.20    2.70   0
  -7  -9  15    5.88    2.52   0
  -7   9  15    5.14    3.38   0
   7  -9 -15    6.28    3.24   0
  -6   9  15    2.03    3.48   0
  -6  -9  15    1.54    3.36   0
  -6   9  15    1.59    3.61   0
  -6  -9  15    1.39    3.42   0
  -6   9  15    4.03    2.37   0
   6  -9 -15    0.47    2.27   0
  -5  -9  15   34.89    2.50   0
  -5   9  15   27.51    2.86   0
  -5   9  15   39.52    3.87   0
  -5  -9  15   34.85    3.57   0
  -5   9  15   36.67    3.48   0
   5  -9 -15   35.42    2.47   0
  -4  -9  15   63.56    2.72   0
  -4   9  15   73.01    3.99   0
  -4   9  15   63.26    4.02   0
  -4  -9  15   74.56    2.80   0
  -4   9  15   58.42    2.75   0
   4  -9 -15   70.02    3.60   0
  -3   9  15   71.28    4.21   0
   3   9 -15   71.69    3.94   0
  -3   9  15   68.49    4.02   0
  -3  -9  15   68.24    3.81   0
  -3   9  15   61.47    3.50   0
   3  -9 -15   66.81    2.82   0
  -3  -9  15   66.34    3.68   0
  10   0 -16    2.54    3.23   0
 -10   0  16    1.88    2.39   0
 -10   0  16   -0.21    2.41   0
   9   0 -16    8.82    2.28   0
  -9   0  16   12.70    3.34   0
  -9   0  16   12.61    3.44   0
   8   0 -16    5.11    2.27   0
  -8   0  16    3.16    3.34   0
  -8   0  16    3.22    2.28   0
   7   0 -16   43.35    2.50   0
  -7   0  16   46.52    2.62   0
  -7   0  16   46.58    2.61   0
   6   0 -16  221.08    3.31   0
  -6   0  16  244.06    4.19   0
  -6   0  16  249.30    4.22   0
   5   0 -16   95.68    2.74   0
  -5   0  16  100.54    3.68   0
  -5   0  16  112.61    3.80   0
   4   0 -16    8.52    2.32   0
  -4   0  16    4.43    2.31   0
  -4   0  16    7.05    2.40   0
   3   0 -16  649.67    5.38   0
  -3   0  16  589.76    4.77   0
  -3   0  16  677.85    5.87   0
   2   0 -16  213.25    4.27   0
  -2   0  16  215.88    4.25   0
  -2   0  16  215.74    3.67   0
  -1   0  16    9.48    2.42   0
   1   0 -16   11.62    3.49   0
  -1   0  16    8.89    3.40   0
   0   0  16   22.00    3.55   0
   0   0 -16   29.94    3.52   0
   0   0  16   21.99    2.65   0
  10  -1 -16   23.73    3.32   0
 -10   1  16   22.46    2.47   0
 -10   1  16   18.30    2.56   0
 -10  -1  16   27.56    3.51   0
 -10  -1  16   26.81    3.52   0
  10   1 -16   19.45    2.37   0
   9  -1 -16   54.78    2.58   0
  -9   1  16   50.04    3.52   0
  -9   1  16   52.00    2.69   0
  -9  -1  16   54.73    3.67   0
  -9  -1  16   51.64    2.63   0
   9   1 -16   57.73    3.43   0
  -8   1  16   26.11    3.41   0
   8   1 -16   22.07    2.40   0
  -8   1  16   30.05    3.40   0
  -8  -1  16   22.18    2.50   0
  -8  -1  16   28.87    2.47   0
   8  -1 -16   28.05    3.31   0
   7   1 -16   25.37    2.41   0
  -7   1  16   21.51    2.47   0
  -7   1  16   32.94    3.39   0
  -7  -1  16   31.68    3.40   0
  -7  -1  16   27.89    2.43   0
   7  -1 -16   30.59    3.25   0
   6   1 -16   12.76    3.20   0
  -6   1  16   13.00    2.40   0
  -6  -1  16   13.45    2.36   0
  -6   1  16   12.95    2.50   0
  -6  -1  16   12.34    2.44   0
   6  -1 -16   10.89    2.35   0
  -5   1  16   89.63    2.75   0
   5   1 -16   96.96    3.48   0
  -5  -1  16   96.22    2.82   0
  -5   1  16   98.42    2.96   0
  -5  -1  16   91.03    2.77   0
   5  -1 -16   94.21    3.63   0
  -4   1  16   90.78    3.60   0
   4   1 -16   84.29    3.49   0
  -4  -1  16   84.66    2.74   0
  -4   1  16   91.57    3.73   0
  -4  -1  16   93.60    2.90   0
   4  -1 -16   91.45    3.59   0
  -3   1  16   29.47    3.34   0
   3   1 -16   28.40    2.47   0
  -3  -1  16   31.71    3.33   0
  -3   1  16   29.60    2.58   0
  -3  -1  16   31.73    3.40   0
   3  -1 -16   32.82    2.40   0
  -2   1  16   64.27    3.60   0
  -2  -1  16   61.45    2.74   0
   2   1 -16   67.35    2.72   0
  -2   1  16   71.86    3.77   0
  -2  -1  16   73.53    3.72   0
   2  -1 -16   65.41    3.57   0
  -1   1  16   52.05    3.61   0
  -1  -1  16   48.77    3.56   0
   1   1 -16   48.89    3.66   0
  -1   1  16   46.68    2.72   0
  -1  -1  16   54.70    3.71   0
   1  -1 -16   48.60    2.73   0
   0  -1 -16   22.29    3.50   0
   0  -1  16   19.59    2.61   0
   0   1  16   20.19    2.61   0
   0  -1  16   19.62    2.61   0
   0   1 -16   22.64    3.67   0
 -10   2  16   11.23    2.49   0
 -10   2  16    9.45    3.47   0
 -10  -2  16    8.24    3.53   0
 -10  -2  16   10.17    3.46   0
  10   2 -16    8.81    2.45   0
  10  -2 -16    9.91    3.42   0
  -9   2  16  243.58    3.52   0
  -9   2  16  267.82    4.40   0
  -9  -2  16  279.34    4.36   0
  -9  -2  16  257.73    3.55   0
   9   2 -16  266.75    4.24   0
   9  -2 -16  245.46    3.52   0
  -8   2  16  118.86    2.95   0
  -8   2  16  132.80    3.12   0
  -8  -2  16  131.16    3.06   0
  -8  -2  16  130.11    2.98   0
   8   2 -16  132.97    3.71   0
   8  -2 -16  135.98    3.72   0
  -7   2  16  201.09    4.02   0
  -7   2  16  191.63    3.46   0
  -7  -2  16  209.67    4.10   0
  -7  -2  16  179.76    3.23   0
   7   2 -16  183.52    3.98   0
   7  -2 -16  189.12    3.93   0
  -6   2  16  634.49    5.33   0
  -6   2  16  675.28    5.76   0
  -6  -2  16  621.84    4.76   0
  -6  -2  16  630.91    4.97   0
   6   2 -16  597.92    4.58   0
   6  -2 -16  637.89    5.24   0
  -5   2  16  229.17    4.04   0
  -5  -2  16  218.82    3.36   0
  -5   2  16  221.64    3.66   0
   5   2 -16  217.10    3.26   0
  -5  -2  16  241.62    4.23   0
   5  -2 -16  210.97    3.25   0
  -4   2  16    2.21    2.21   0
  -4  -2  16    0.30    3.25   0
  -4   2  16    1.60    3.41   0
  -4  -2  16    2.57    3.23   0
   4   2 -16    5.45    3.17   0
   4  -2 -16    1.50    2.19   0
  -3   2  16   66.69    2.62   0
  -3  -2  16   80.39    3.64   0
  -3   2  16   71.19    2.90   0
  -3  -2  16   73.99    3.72   0
   3   2 -16   72.29    2.70   0
   3  -2 -16   69.48    3.52   0
  -2   2  16  215.41    3.45   0
  -2  -2  16  216.56    3.53   0
  -2   2  16  221.71    3.74   0
  -2  -2  16  245.28    4.36   0
   2  -2 -16  215.84    3.51   0
   2   2 -16  214.87    3.60   0
  -1   2  16   22.54    2.57   0
  -1  -2  16   24.66    2.59   0
  -1   2  16   24.85    2.59   0
  -1  -2  16   25.04    2.60   0
   1  -2 -16   23.81    2.56   0
   1   2 -16   26.76    3.44   0
 -10   3  16   92.47    3.88   0
 -10   3  16   98.91    3.09   0
 -10  -3  16  106.27    4.09   0
  10   3 -16  100.71    3.75   0
 -10  -3  16  106.11    3.84   0
  10  -3 -16   95.06    2.95   0
  -9   3  16   21.37    3.46   0
   9   3 -16   12.80    2.38   0
  -9   3  16   17.86    2.54   0
  -9  -3  16   17.11    3.62   0
  -9  -3  16   19.17    2.38   0
   9  -3 -16   13.62    2.42   0
   8   3 -16   -0.40    2.26   0
  -8   3  16    1.44    3.28   0
  -8   3  16    1.22    3.41   0
  -8  -3  16    2.66    2.33   0
  -8  -3  16   -1.55    2.30   0
   8  -3 -16    8.31    3.12   0
  -7   3  16   55.07    2.60   0
  -7   3  16   59.89    3.74   0
  -7  -3  16   61.76    3.53   0
   7  -3 -16   62.24    3.42   0
  -7  -3  16   57.00    2.59   0
   7   3 -16   53.31    2.66   0
  -6   3  16   88.48    2.84   0
  -6   3  16   99.79    3.85   0
  -6  -3  16  102.53    3.78   0
   6  -3 -16   91.80    3.56   0
  -6  -3  16   95.00    2.92   0
   6   3 -16   90.48    2.85   0
  -5   3  16  191.88    3.23   0
  -5   3  16  211.38    3.67   0
   5  -3 -16  201.39    3.28   0
  -5  -3  16  218.58    3.50   0
  -5  -3  16  204.90    3.38   0
   5   3 -16  197.45    3.24   0
  -4   3  16   95.64    3.61   0
   4  -3 -16   99.77    3.59   0
  -4  -3  16  101.54    2.85   0
  -4   3  16  100.07    3.12   0
  -4  -3  16  100.95    2.90   0
   4   3 -16   95.84    2.81   0
  -3   3  16   53.37    2.57   0
   3   3 -16   49.12    2.62   0
  -3  -3  16   50.31    2.70   0
   3  -3 -16   58.14    2.62   0
  -3   3  16   58.43    3.68   0
  -3  -3  16   55.48    2.68   0
  -2   3  16  227.93    4.14   0
   2   3 -16  210.05    3.53   0
  -2  -3  16  237.89    4.33   0
   2  -3 -16  232.01    4.22   0
  -2   3  16  225.39    4.60   0
  -2  -3  16  248.22    4.33   0
   1   3 -16   35.84    3.76   0
  -1  -3  16   41.28    3.64   0
   1  -3 -16   41.25    3.48   0
   1   3 -16   38.05    2.65   0
  -1   3  16   38.46    3.61   0
  -1  -3  16   37.66    2.68   0
  -1   3  16   35.78    3.47   0
  -9   4  16  227.01    3.53   0
  -9   4  16  275.53    4.53   0
  -9  -4  16  268.48    4.45   0
   9  -4 -16  232.46    3.48   0
  -9  -4  16  278.42    4.30   0
   9   4 -16  252.28    4.17   0
  -8   4  16  347.02    3.91   0
  -8   4  16  345.27    4.18   0
  -8  -4  16  354.97    4.11   0
   8  -4 -16  360.50    4.48   0
  -8  -4  16  351.38    3.86   0
   8   4 -16  359.77    4.44   0
  -7   4  16  494.94    4.88   0
  -7   4  16  518.53    5.43   0
   7  -4 -16  493.96    4.88   0
  -7  -4  16  536.30    5.24   0
   7   4 -16  466.39    4.28   0
  -7  -4  16  525.96    5.07   0
  -6   4  16  416.31    4.80   0
   6  -4 -16  433.23    4.74   0
  -6   4  16  423.34    4.50   0
  -6  -4  16  472.26    4.98   0
   6   4 -16  433.87    4.82   0
  -6  -4  16  421.69    4.14   0
  -5   4  16  268.40    4.19   0
   5  -4 -16  259.74    3.46   0
  -5   4  16  265.52    4.01   0
  -5  -4  16  267.97    4.38   0
   5   4 -16  278.77    4.21   0
  -5  -4  16  273.07    3.61   0
  -4   4  16  151.55    3.15   0
   4  -4 -16  174.32    3.87   0
  -4   4  16  178.03    4.28   0
  -4  -4  16  184.72    4.05   0
   4   4 -16  159.19    3.15   0
  -4  -4  16  169.52    3.24   0
  -3   4  16   37.15    3.42   0
   3  -4 -16   34.96    2.51   0
  -3  -4  16   37.33    2.55   0
  -3   4  16   37.55    3.61   0
  -3  -4  16   38.19    3.52   0
   3   4 -16   30.23    2.48   0
   2   4 -16   23.57    2.52   0
   2  -4 -16   20.56    3.42   0
  -2  -4  16   21.51    3.43   0
  -2   4  16   19.40    2.50   0
  -2  -4  16   21.35    3.46   0
  -2   4  16   19.64    2.47   0
   1   4 -16    4.19    2.50   0
   1  -4 -16    3.89    2.36   0
  -1  -4  16    3.12    2.47   0
  -1   4  16    1.85    3.39   0
  -1  -4  16    3.08    3.49   0
   1   4 -16    3.58    2.40   0
  -1   4  16    2.66    2.42   0
   9   5 -16    3.58    2.27   0
  -9   5  16    4.00    3.42   0
  -9   5  16    3.67    2.50   0
   9  -5 -16    4.41    3.39   0
  -9  -5  16    0.97    2.38   0
  -9  -5  16    3.70    2.39   0
  -8   5  16   24.50    3.44   0
   8  -5 -16   20.15    2.37   0
  -8   5  16   22.05    2.57   0
  -8  -5  16   23.47    2.59   0
   8   5 -16   18.44    2.35   0
  -8  -5  16   23.86    3.35   0
  -7   5  16   10.89    2.28   0
   7  -5 -16    9.87    3.22   0
  -7   5  16   10.49    2.53   0
  -7  -5  16   11.69    3.38   0
   7   5 -16    7.70    3.29   0
  -7  -5  16   15.01    3.37   0
  -6   5  16   23.32    2.52   0
   6   5 -16   23.60    2.49   0
   6  -5 -16   24.49    2.41   0
  -6   5  16   28.55    3.69   0
  -6  -5  16   27.08    3.38   0
  -6  -5  16   28.40    2.58   0
  -5   5  16    5.01    2.38   0
   5  -5 -16    2.09    2.35   0
  -5   5  16    3.41    2.42   0
  -5  -5  16    4.77    3.46   0
   5   5 -16    2.48    3.21   0
  -5  -5  16    2.81    2.32   0
   4  -5 -16   -0.37    2.26   0
  -4   5  16    0.27    3.47   0
  -4  -5  16   -1.58    2.32   0
   4   5 -16    1.55    2.23   0
  -4  -5  16    0.51    2.28   0
  -4   5  16   -0.87    2.29   0
   3   5 -16   -0.10    2.29   0
   3  -5 -16    1.13    2.25   0
  -3   5  16    3.71    3.30   0
  -3  -5  16   -0.25    2.36   0
  -3  -5  16   -1.57    3.30   0
  -3   5  16    0.18    2.30   0
   2  -5 -16   51.04    2.70   0
   2   5 -16   51.48    3.58   0
   2   5 -16   57.21    3.68   0
  -2  -5  16   57.41    3.57   0
  -2   5  16   57.81    3.83   0
  -2  -5  16   63.43    3.74   0
  -2   5  16   58.49    3.51   0
  -8   6  16  100.20    2.91   0
   8  -6 -16  111.45    3.71   0
  -8   6  16  104.88    4.03   0
  -8  -6  16  108.77    3.03   0
  -8  -6  16  113.19    3.02   0
  -7   6  16   86.05    3.64   0
   7  -6 -16   75.80    2.64   0
  -7   6  16   77.75    3.96   0
  -7  -6  16   87.21    3.71   0
   7   6 -16   72.40    2.74   0
  -7  -6  16   74.78    2.81   0
   6  -6 -16  135.33    3.04   0
  -6   6  16  144.24    4.22   0
  -6  -6  16  147.80    3.93   0
  -6  -6  16  145.37    3.87   0
   6   6 -16  121.87    3.03   0
  -6   6  16  125.37    3.88   0
   5  -6 -16  125.98    3.72   0
  -5   6  16  124.52    4.30   0
  -5  -6  16  130.91    3.87   0
  -5  -6  16  126.66    3.89   0
   5   6 -16  107.34    2.95   0
  -5   6  16  119.02    3.79   0
   4  -6 -16  123.71    3.15   0
  -4   6  16  138.46    4.23   0
  -4  -6  16  140.19    3.97   0
  -4  -6  16  141.00    3.82   0
  -4   6  16  115.86    3.03   0
   3  -6 -16  140.69    3.16   0
  -3   6  16  151.76    4.42   0
  -3  -6  16  140.63    3.18   0
  -3  -6  16  136.13    3.14   0
  -3   6  16  138.62    4.01   0
   7  -7 -16   49.05    2.62   0
  -7   7  16   47.90    3.91   0
  -7   7  16   58.40    3.94   0
  -7  -7  16   53.32    3.68   0
  -7  -7  16   45.72    2.70   0
  -7   7  16   51.38    2.62   0
   6  -7 -16  160.74    3.19   0
  -6   7  16  154.05    3.70   0
  -6  -7  16  179.85    4.27   0
  -6  -7  16  148.02    3.12   0
  -6   7  16  144.36    3.24   0
   5  -7 -16  126.93    3.04   0
  -5   7  16  143.92    4.40   0
  -5  -7  16  134.93    3.19   0
  -5  -7  16  137.21    3.14   0
  -5   7  16  125.22    3.01   0
   4  -7 -16   14.51    3.39   0
  -4   7  16   15.36    3.65   0
  -4  -7  16   15.43    3.57   0
  -4  -7  16   12.11    2.33   0
  -4   7  16    9.91    3.39   0
   8  -1 -17   59.32    2.62   0
  -8   1  17   69.17    3.65   0
  -8  -1  17   62.12    2.84   0
   8   1 -17   62.68    2.75   0
  -8   1  17   68.04    2.92   0
  -8  -1  17   69.33    3.67   0
  -7   1  17   72.96    2.86   0
  -7  -1  17   84.58    3.67   0
   7   1 -17   89.62    3.60   0
  -7   1  17   77.54    2.89   0
  -7  -1  17   78.75    2.96   0
   7  -1 -17   77.33    2.75   0
  -6   1  17  113.69    3.85   0
   6   1 -17  110.87    3.01   0
  -6  -1  17  124.32    3.93   0
  -6   1  17  121.62    4.04   0
  -6  -1  17  129.21    3.84   0
   6  -1 -17  131.57    3.73   0
  -5   1  17   52.12    2.80   0
   5   1 -17   59.85    2.80   0
  -5  -1  17   71.42    3.67   0
  -5   1  17   63.45    3.77   0
  -5  -1  17   59.66    2.79   0
   5  -1 -17   62.05    3.53   0
  -4   1  17    9.34    3.24   0
  -4  -1  17    8.79    2.40   0
   4   1 -17   10.53    3.25   0
  -4   1  17   10.93    3.54   0
  -4  -1  17    7.83    2.46   0
   4  -1 -17    9.88    3.24   0
  -3   1  17    9.53    2.50   0
  -3  -1  17   11.35    2.45   0
   3   1 -17   12.31    2.43   0
  -3   1  17   12.16    2.50   0
  -3  -1  17    9.90    3.48   0
   3  -1 -17   14.38    2.49   0
  -8   2  17   84.79    3.66   0
  -8   2  17   74.14    2.90   0
  -8  -2  17   74.76    2.89   0
  -8  -2  17   72.10    2.82   0
   8   2 -17   73.03    3.57   0
   8  -2 -17   65.70    2.67   0
  -7   2  17    5.69    2.37   0
  -7   2  17    5.85    2.48   0
  -7  -2  17    5.94    3.45   0
  -7  -2  17    6.01    2.41   0
   7   2 -17    1.85    3.32   0
   7  -2 -17    7.79    2.34   0
  -6   2  17  210.32    3.44   0
  -6  -2  17  237.47    4.23   0
  -6   2  17  253.23    4.55   0
  -6  -2  17  224.77    3.74   0
   6   2 -17  222.40    4.24   0
   6  -2 -17  222.08    4.09   0
  -5   2  17  204.47    3.45   0
  -5  -2  17  233.09    4.30   0
  -5   2  17  232.25    4.59   0
  -5  -2  17  235.13    4.29   0
   5   2 -17  225.86    4.22   0
   5  -2 -17  208.18    3.52   0
  -4   2  17    4.34    2.34   0
  -4  -2  17    3.39    2.35   0
  -4   2  17    6.20    3.48   0
  -4  -2  17    5.98    3.51   0
   4  -2 -17    7.59    2.43   0
   4   2 -17    4.79    2.33   0
  -3   2  17   26.81    2.55   0
  -3  -2  17   27.35    2.69   0
  -3   2  17   31.59    3.69   0
  -3  -2  17   33.92    3.66   0
   3  -2 -17   31.80    3.51   0
   3   2 -17   35.68    3.51   0
   7   3 -17  122.76    3.10   0
  -7   3  17  130.81    3.92   0
  -7   3  17  132.93    4.10   0
  -7  -3  17  140.40    4.00   0
  -7  -3  17  131.70    3.97   0
   7  -3 -17  127.59    3.02   0
   6   3 -17  192.04    3.36   0
  -6   3  17  195.58    3.28   0
  -6   3  17  233.88    4.54   0
  -6  -3  17  223.03    4.24   0
  -6  -3  17  234.07    4.30   0
   6  -3 -17  212.16    4.04   0
   5   3 -17   44.70    2.62   0
  -5   3  17   47.04    3.66   0
  -5  -3  17   53.08    3.59   0
  -5   3  17   46.30    2.87   0
  -5  -3  17   51.20    2.74   0
   5  -3 -17   50.22    2.66   0
  -4   3  17    1.20    3.35   0
   4   3 -17    0.89    3.31   0
  -4  -3  17    6.30    2.40   0
  -4   3  17    2.57    2.49   0
  -4  -3  17    6.18    3.44   0
   4  -3 -17    4.14    2.31   0
  -6   4  17   31.54    3.52   0
  -6   4  17   40.41    3.77   0
   6  -4 -17   40.06    3.48   0
  -6  -4  17   34.34    2.70   0
  -6  -4  17   39.14    3.64   0
   6   4 -17   37.39    3.52   0
  -5   4  17  133.22    3.12   0
   5  -4 -17  144.56    3.17   0
  -5   4  17  148.91    3.48   0
  -5  -4  17  153.87    4.06   0
  -5  -4  17  174.66    4.18   0
   5   4 -17  157.80    3.96   0
;
_shelx_hkl_checksum   81047
